Circuit: * C:\Users\Сергей\Desktop\короткий\2лаба кор\1 shema.asc

.OP point found by inspection.

Date: Wed Mar 14 20:22:42 2018
Total elapsed time: 0.075 seconds.

tnom = 27
temp = 27
method = modified trap
totiter = 2286
traniter = 2286
tranpoints = 1082
accept = 1076
rejected = 6
matrix size = 3
fillins = 0
solver = Normal
Matrix Compiler1: 50 bytes object code size  0.0/0.1/[0.0]
Matrix Compiler2: 175 bytes object code size  0.1/0.0/[0.0]


