Circuit: * C:\Users\Сергей\Desktop\короткий\2лаба кор\Draft2.asc

.OP point found by inspection.
Heightened Def Con from 0.0421913 to 0.0421913
Heightened Def Con from 0.0421913 to 0.0421913
Heightened Def Con from 0.0421913 to 0.0421913
Heightened Def Con from 0.0421913 to 0.0421913
Heightened Def Con from 0.0421913 to 0.0421913
Heightened Def Con from 0.0421913 to 0.0421913
Heightened Def Con from 0.0421913 to 0.0421913
Heightened Def Con from 0.0421913 to 0.0421913
Heightened Def Con from 0.0421913 to 0.0421913
Heightened Def Con from 0.0421913 to 0.0421913
Heightened Def Con from 0.0421913 to 0.0421913
Heightened Def Con from 0.0421913 to 0.0421913
Heightened Def Con from 0.0421913 +++to 0.0421913
Heightened Def Con from 0.0421913 to 0.0421913
Heightened Def Con from 0.0421913 ++++to 0.0421913
Heightened Def Con from 0.0421913 to 0.0421913
Heightened Def Con from 0.0421913 ++to 0.0421913
Heightened Def Con from 0.0421913 to 0.0421913
Heightened Def Con from 0.0421913 to 0.0421913
Heightened Def Con from 0.0421913 +++to 0.0421913
Heightened Def Con from 0.0421913 to 0.0421913
Heightened Def Con from 0.0421913 +++to 0.0421913
Heightened Def Con from 0.0421913 to 0.0421913
Heightened Def Con from 0.0421913 ++++to 0.0421913
Heightened Def Con from 0.0421913 to 0.0421913
Heightened Def Con from 0.0421913 to 0.0421913
Heightened Def Con from 0.0421913 to 0.0421913
Heightened Def Con from 0.0421913 to 0.0421913
Heightened Def Con from 0.0421913 ++++to 0.0421913
Heightened Def Con from 0.0421913 to 0.0421913
Heightened Def Con from 0.0421913 +++to 0.0421913
Heightened Def Con from 0.0421913 ++++to 0.0421913
Heightened Def Con from 0.0421913 to 0.0421913
Heightened Def Con from 0.0421913 to 0.0421913
Heightened Def Con from 0.0421913 to 0.0421913
Heightened Def Con from 0.0421913 +++to 0.0421913
Heightened Def Con from 0.0421913 to 0.0421913
Heightened Def Con from 0.0421913 ++++to 0.0421913
Heightened Def Con from 0.0421913 to 0.0421913
Heightened Def Con from 0.0421913 to 0.0421913
Heightened Def Con from 0.0421913 to 0.0421913
Heightened Def Con from 0.0421913 to 0.0421913
Heightened Def Con from 0.0421913 to 0.0421913
Heightened Def Con from 0.0421913 to 0.0421913
Heightened Def Con from 0.0421913 to 0.0421913
Heightened Def Con from 0.0421913 to 0.0421913
Heightened Def Con from 0.0421913 to 0.0421913
Heightened Def Con from 0.0421913 to 0.0421913
Heightened Def Con from 0.0421913 +++to 0.0421913
Heightened Def Con from 0.0421913 ++to 0.0421913
Heightened Def Con from 0.0421913 ++to 0.0421913
Heightened Def Con from 0.0421913 ++to 0.0421913
Heightened Def Con from 0.0421913 ++to 0.0421913
Heightened Def Con from 0.0421913 +++to 0.0421913
Heightened Def Con from 0.0421913 ++to 0.0421913
Heightened Def Con from 0.0421913 +++to 0.0421913
Heightened Def Con from 0.0421913 ++to 0.0421913
Heightened Def Con from 0.0421913 to 0.0421913
Heightened Def Con from 0.0421913 ++to 0.0421913
Heightened Def Con from 0.0421913 to 0.0421913
Heightened Def Con from 0.0421913 ++++to 0.0421913
Heightened Def Con from 0.0421913 to 0.0421913
Heightened Def Con from 0.0421913 to 0.0421913
Heightened Def Con from 0.0421913 +++to 0.0421913
Heightened Def Con from 0.0421913 to 0.0421913
Heightened Def Con from 0.0421913 ++++to 0.0421913
Heightened Def Con from 0.0421913 to 0.0421913
Heightened Def Con from 0.0421913 to 0.0421913
Heightened Def Con from 0.0421913 to 0.0421913
Heightened Def Con from 0.0421913 to 0.0421913
Heightened Def Con from 0.0421913 to 0.0421913
Heightened Def Con from 0.0421913 ++to 0.0421913
Heightened Def Con from 0.0421913 to 0.0421913
Heightened Def Con from 0.0421913 to 0.0421913
Heightened Def Con from 0.0421913 ++to 0.0421913
Heightened Def Con from 0.0421913 to 0.0421913
Heightened Def Con from 0.0421913 ++++to 0.0421913
Heightened Def Con from 0.0421913 ++++to 0.0421913
Heightened Def Con from 0.0421913 to 0.0421913
Heightened Def Con from 0.0421913 to 0.0421913
Heightened Def Con from 0.0421913 to 0.0421913
Heightened Def Con from 0.0421913 to 0.0421913
Heightened Def Con from 0.0421913 to 0.0421913
Heightened Def Con from 0.0421913 to 0.0421913
Heightened Def Con from 0.0421913 +++to 0.0421913
Heightened Def Con from 0.0421913 +++to 0.0421913
Heightened Def Con from 0.0421913 ++to 0.0421913
Heightened Def Con from 0.0421913 ++to 0.0421913
Heightened Def Con from 0.0421913 ++++to 0.0421913
Heightened Def Con from 0.0421913 +++to 0.0421913
Heightened Def Con from 0.0421913 to 0.0421913
Heightened Def Con from 0.0421913 to 0.0421913
Heightened Def Con from 0.0421913 to 0.0421913
Heightened Def Con from 0.0421913 +++to 0.0421913
Heightened Def Con from 0.0421913 to 0.0421913
Heightened Def Con from 0.0421913 to 0.0421913
Heightened Def Con from 0.0421913 to 0.0421913
Heightened Def Con from 0.0421913 to 0.0421913
Heightened Def Con from 0.0421913 to 0.0421913
Heightened Def Con from 0.0421913 ++to 0.0421913
Heightened Def Con from 0.0421913 to 0.0421913
Heightened Def Con from 0.0421913 ++++to 0.0421913
Heightened Def Con from 0.0421913 ++to 0.0421913
Heightened Def Con from 0.0421913 ++to 0.0421913
Heightened Def Con from 0.0421913 ++to 0.0421913
Heightened Def Con from 0.0421913 ++to 0.0421913
Heightened Def Con from 0.0421913 to 0.0421913
Heightened Def Con from 0.0421913 +++to 0.0421913
Heightened Def Con from 0.0421913 to 0.0421913
Heightened Def Con from 0.0421913 ++to 0.0421913
Heightened Def Con from 0.0421913 to 0.0421913
Heightened Def Con from 0.0421913 to 0.0421913
Heightened Def Con from 0.0421913 to 0.0421913
Heightened Def Con from 0.0421913 ++++to 0.0421913
Heightened Def Con from 0.0421913 to 0.0421913
Heightened Def Con from 0.0421913 to 0.0421913
Heightened Def Con from 0.0421913 ++to 0.0421913
Heightened Def Con from 0.0421913 ++to 0.0421913
Heightened Def Con from 0.0421913 ++to 0.0421913
Heightened Def Con from 0.0421913 to 0.0421913
Heightened Def Con from 0.0421913 to 0.0421913
Heightened Def Con from 0.0421913 to 0.0421913
Heightened Def Con from 0.0421913 to 0.0421913
Heightened Def Con from 0.0421913 to 0.0421913
Heightened Def Con from 0.0421913 to 0.0421913
Heightened Def Con from 0.0421913 to 0.0421913
Heightened Def Con from 0.0421913 to 0.0421913
Heightened Def Con from 0.0421913 ++to 0.0421913
Heightened Def Con from 0.0421913 ++to 0.0421913
Heightened Def Con from 0.0421913 ++to 0.0421913
Heightened Def Con from 0.0421913 +++to 0.0421913
Heightened Def Con from 0.0421913 ++to 0.0421913
Heightened Def Con from 0.0421913 ++to 0.0421913
Heightened Def Con from 0.0421913 ++to 0.0421914
Heightened Def Con from 0.0421914 ++to 0.0421914
Heightened Def Con from 0.0421914 ++to 0.0421914
Heightened Def Con from 0.0421914 ++to 0.0421914
Heightened Def Con from 0.0421914 ++to 0.0421914
Heightened Def Con from 0.0421914 ++++to 0.0421914
Heightened Def Con from 0.0421914 +++to 0.0421914
Heightened Def Con from 0.0421914 ++to 0.0421914
Heightened Def Con from 0.0421914 ++to 0.0421914
Heightened Def Con from 0.0421914 ++to 0.0421914
Heightened Def Con from 0.0421914 ++to 0.0421914
Heightened Def Con from 0.0421914 ++to 0.0421914
Heightened Def Con from 0.0421914 to 0.0421914
Heightened Def Con from 0.0421914 to 0.0421914
Heightened Def Con from 0.0421914 to 0.0421914
Heightened Def Con from 0.0421914 ++to 0.0421914
Heightened Def Con from 0.0421914 to 0.0421914
Heightened Def Con from 0.0421914 to 0.0421914
Heightened Def Con from 0.0421914 +++to 0.0421914
Heightened Def Con from 0.0421914 +++to 0.0421914
Heightened Def Con from 0.0421914 to 0.0421914
Heightened Def Con from 0.0421914 to 0.0421914
Heightened Def Con from 0.0421914 to 0.0421914
Heightened Def Con from 0.0421914 ++to 0.0421914
Heightened Def Con from 0.0421914 to 0.0421914
Heightened Def Con from 0.0421914 ++to 0.0421914
Heightened Def Con from 0.0421914 ++to 0.0421914
Heightened Def Con from 0.0421914 +++to 0.0421914
Heightened Def Con from 0.0421914 ++to 0.0421914
Heightened Def Con from 0.0421914 to 0.0421914
Heightened Def Con from 0.0421914 ++++to 0.0421914
Heightened Def Con from 0.0421914 +++to 0.0421914
Heightened Def Con from 0.0421914 to 0.0421914
Heightened Def Con from 0.0421914 +++to 0.0421914
Heightened Def Con from 0.0421914 to 0.0421914
Heightened Def Con from 0.0421914 to 0.0421914
Heightened Def Con from 0.0421914 to 0.0421914
Heightened Def Con from 0.0421914 to 0.0421914
Heightened Def Con from 0.0421914 +++to 0.0421914
Heightened Def Con from 0.0421914 ++++to 0.0421914
Heightened Def Con from 0.0421914 +++to 0.0421914
Heightened Def Con from 0.0421914 ++++to 0.0421914
Heightened Def Con from 0.0421914 ++to 0.0421914
Heightened Def Con from 0.0421914 ++to 0.0421914
Heightened Def Con from 0.0421914 ++to 0.0421914
Heightened Def Con from 0.0421914 to 0.0421914
Heightened Def Con from 0.0421914 to 0.0421914
Heightened Def Con from 0.0421914 +++to 0.0421914
Heightened Def Con from 0.0421914 to 0.0421914
Heightened Def Con from 0.0421914 to 0.0421914
Heightened Def Con from 0.0421914 to 0.0421914
Heightened Def Con from 0.0421914 to 0.0421914
Heightened Def Con from 0.0421914 to 0.0421914
Heightened Def Con from 0.0421914 to 0.0421914
Heightened Def Con from 0.0421914 to 0.0421914
Heightened Def Con from 0.0421914 to 0.0421914
Heightened Def Con from 0.0421914 to 0.0421914
Heightened Def Con from 0.0421914 to 0.0421914
Heightened Def Con from 0.0421914 to 0.0421914
Heightened Def Con from 0.0421914 to 0.0421914
Heightened Def Con from 0.0421914 to 0.0421914
Heightened Def Con from 0.0421914 ++to 0.0421914
Heightened Def Con from 0.0421914 ++to 0.0421914
Heightened Def Con from 0.0421914 +++to 0.0421914
Heightened Def Con from 0.0421914 ++to 0.0421914
Heightened Def Con from 0.0421914 to 0.0421914
Heightened Def Con from 0.0421914 to 0.0421914
Heightened Def Con from 0.0421914 to 0.0421914
Heightened Def Con from 0.0421914 to 0.0421914
Heightened Def Con from 0.0421914 to 0.0421914
Heightened Def Con from 0.0421914 to 0.0421914
Heightened Def Con from 0.0421914 ++++to 0.0421914
Heightened Def Con from 0.0421914 to 0.0421914
Heightened Def Con from 0.0421914 to 0.0421914
Heightened Def Con from 0.0421914 ++to 0.0421914
Heightened Def Con from 0.0421914 to 0.0421914
Heightened Def Con from 0.0421914 to 0.0421914
Heightened Def Con from 0.0421914 to 0.0421914
Heightened Def Con from 0.0421914 to 0.0421914
Heightened Def Con from 0.0421914 to 0.0421914
Heightened Def Con from 0.0421914 to 0.0421914
Heightened Def Con from 0.0421914 to 0.0421914
Heightened Def Con from 0.0421914 ++to 0.0421914
Heightened Def Con from 0.0421914 +++to 0.0421914
Heightened Def Con from 0.0421914 ++to 0.0421914
Heightened Def Con from 0.0421914 ++to 0.0421914
Heightened Def Con from 0.0421914 +++to 0.0421914
Heightened Def Con from 0.0421914 ++to 0.0421914
Heightened Def Con from 0.0421914 to 0.0421914
Heightened Def Con from 0.0421914 ++++to 0.0421914
Heightened Def Con from 0.0421914 ++++to 0.0421914
Heightened Def Con from 0.0421914 to 0.0421914
Heightened Def Con from 0.0421914 to 0.0421914
Heightened Def Con from 0.0421914 to 0.0421914
Heightened Def Con from 0.0421914 to 0.0421914
Heightened Def Con from 0.0421914 to 0.0421914
Heightened Def Con from 0.0421914 to 0.0421914
Heightened Def Con from 0.0421914 to 0.0421914
Heightened Def Con from 0.0421914 to 0.0421914
Heightened Def Con from 0.0421914 ++to 0.0421914
Heightened Def Con from 0.0421914 ++to 0.0421914
Heightened Def Con from 0.0421914 +++to 0.0421914
Heightened Def Con from 0.0421914 ++to 0.0421914
Heightened Def Con from 0.0421914 +++to 0.0421914
Heightened Def Con from 0.0421914 ++to 0.0421914
Heightened Def Con from 0.0421914 ++to 0.0421914
Heightened Def Con from 0.0421914 +++to 0.0421914
Heightened Def Con from 0.0421914 ++++to 0.0421914
Heightened Def Con from 0.0421914 ++to 0.0421914
Heightened Def Con from 0.0421914 +++to 0.0421914
Heightened Def Con from 0.0421914 +++to 0.0421914
Heightened Def Con from 0.0421914 to 0.0421914
Heightened Def Con from 0.0421914 to 0.0421914
Heightened Def Con from 0.0421914 to 0.0421914
Heightened Def Con from 0.0421914 to 0.0421914
Heightened Def Con from 0.0421914 to 0.0421914
Heightened Def Con from 0.0421914 ++++to 0.0421914
Heightened Def Con from 0.0421914 ++++to 0.0421914
Heightened Def Con from 0.0421914 ++to 0.0421914
Heightened Def Con from 0.0421914 ++to 0.0421914
Heightened Def Con from 0.0421914 ++to 0.0421914
Heightened Def Con from 0.0421914 ++to 0.0421914
Heightened Def Con from 0.0421914 ++to 0.0421914
Heightened Def Con from 0.0421914 ++to 0.0421914
Heightened Def Con from 0.0421914 +++to 0.0421914
Heightened Def Con from 0.0421914 to 0.0421914
Heightened Def Con from 0.0421914 to 0.0421914
Heightened Def Con from 0.0421914 to 0.0421914
Heightened Def Con from 0.0421914 ++++to 0.0421914
Heightened Def Con from 0.0421914 ++to 0.0421914
Heightened Def Con from 0.0421914 to 0.0421914
Heightened Def Con from 0.0421914 ++to 0.0421914
Heightened Def Con from 0.0421914 ++to 0.0421914
Heightened Def Con from 0.0421914 +++to 0.0421914
Heightened Def Con from 0.0421914 ++to 0.0421914
Heightened Def Con from 0.0421914 ++to 0.0421914
Heightened Def Con from 0.0421914 to 0.0421914
Heightened Def Con from 0.0421914 to 0.0421914
Heightened Def Con from 0.0421914 to 0.0421914
Heightened Def Con from 0.0421914 to 0.0421914
Heightened Def Con from 0.0421914 to 0.0421914
Heightened Def Con from 0.0421914 to 0.0421914
Heightened Def Con from 0.0421914 to 0.0421914
Heightened Def Con from 0.0421914 to 0.0421914
Heightened Def Con from 0.0421914 to 0.0421914
Heightened Def Con from 0.0421914 to 0.0421914
Heightened Def Con from 0.0421914 to 0.0421914
Heightened Def Con from 0.0421914 ++++to 0.0421914
Heightened Def Con from 0.0421914 to 0.0421914
Heightened Def Con from 0.0421914 to 0.0421914
Heightened Def Con from 0.0421914 to 0.0421914
Heightened Def Con from 0.0421914 to 0.0421914
Heightened Def Con from 0.0421914 to 0.0421914
Heightened Def Con from 0.0421914 to 0.0421914
Heightened Def Con from 0.0421914 ++to 0.0421914
Heightened Def Con from 0.0421914 ++to 0.0421914
Heightened Def Con from 0.0421914 ++to 0.0421914
Heightened Def Con from 0.0421914 ++to 0.0421914
Heightened Def Con from 0.0421914 +++to 0.0421914
Heightened Def Con from 0.0421914 ++to 0.0421914
Heightened Def Con from 0.0421914 +++to 0.0421914
Heightened Def Con from 0.0421914 ++to 0.0421914
Heightened Def Con from 0.0421914 +++to 0.0421914
Heightened Def Con from 0.0421914 ++to 0.0421914
Heightened Def Con from 0.0421914 to 0.0421914
Heightened Def Con from 0.0421914 to 0.0421914
Heightened Def Con from 0.0421914 to 0.0421914
Heightened Def Con from 0.0421914 to 0.0421914
Heightened Def Con from 0.0421914 to 0.0421914
Heightened Def Con from 0.0421914 +++to 0.0421914
Heightened Def Con from 0.0421914 to 0.0421914
Heightened Def Con from 0.0421914 to 0.0421914
Heightened Def Con from 0.0421914 to 0.0421914
Heightened Def Con from 0.0421914 to 0.0421914
Heightened Def Con from 0.0421914 to 0.0421914
Heightened Def Con from 0.0421914 to 0.0421914
Heightened Def Con from 0.0421914 to 0.0421914
Heightened Def Con from 0.0421914 to 0.0421914
Heightened Def Con from 0.0421914 to 0.0421914
Heightened Def Con from 0.0421914 to 0.0421914
Heightened Def Con from 0.0421914 +++to 0.0421914
Heightened Def Con from 0.0421914 to 0.0421914
Heightened Def Con from 0.0421914 to 0.0421914
Heightened Def Con from 0.0421914 to 0.0421914
Heightened Def Con from 0.0421914 to 0.0421914
Heightened Def Con from 0.0421914 to 0.0421914
Heightened Def Con from 0.0421914 to 0.0421914
Heightened Def Con from 0.0421914 to 0.0421914
Heightened Def Con from 0.0421914 ++to 0.0421914
Heightened Def Con from 0.0421914 to 0.0421914
Heightened Def Con from 0.0421914 to 0.0421914
Heightened Def Con from 0.0421914 ++++to 0.0421914
Heightened Def Con from 0.0421914 to 0.0421914
Heightened Def Con from 0.0421914 ++to 0.0421914
Heightened Def Con from 0.0421914 ++++to 0.0421914
Heightened Def Con from 0.0421914 to 0.0421914
Heightened Def Con from 0.0421914 to 0.0421914
Heightened Def Con from 0.0421914 to 0.0421914
Heightened Def Con from 0.0421914 to 0.0421914
Heightened Def Con from 0.0421914 to 0.0421914
Heightened Def Con from 0.0421914 ++to 0.0421914
Heightened Def Con from 0.0421914 ++to 0.0421914
Heightened Def Con from 0.0421914 to 0.0421914
Heightened Def Con from 0.0421914 to 0.0421914
Heightened Def Con from 0.0421914 to 0.0421914
Heightened Def Con from 0.0421914 to 0.0421914
Heightened Def Con from 0.0421914 to 0.0421914
Heightened Def Con from 0.0421914 to 0.0421915
Heightened Def Con from 0.0421915 to 0.0421915
Heightened Def Con from 0.0421915 ++to 0.0421915
Heightened Def Con from 0.0421915 ++++to 0.0421915
Heightened Def Con from 0.0421915 ++to 0.0421915
Heightened Def Con from 0.0421915 +++to 0.0421915
Heightened Def Con from 0.0421915 ++to 0.0421915
Heightened Def Con from 0.0421915 to 0.0421915
Heightened Def Con from 0.0421915 to 0.0421915
Heightened Def Con from 0.0421915 +++to 0.0421915
Heightened Def Con from 0.0421915 ++to 0.0421915
Heightened Def Con from 0.0421915 ++to 0.0421915
Heightened Def Con from 0.0421915 ++++to 0.0421915
Heightened Def Con from 0.0421915 to 0.0421915
Heightened Def Con from 0.0421915 ++to 0.0421915
Heightened Def Con from 0.0421915 to 0.0421915
Heightened Def Con from 0.0421915 to 0.0421915
Heightened Def Con from 0.0421915 ++to 0.0421915
Heightened Def Con from 0.0421915 to 0.0421915
Heightened Def Con from 0.0421915 to 0.0421915
Heightened Def Con from 0.0421915 to 0.0421915
Heightened Def Con from 0.0421915 to 0.0421915
Heightened Def Con from 0.0421915 +++to 0.0421915
Heightened Def Con from 0.0421915 +++to 0.0421915
Heightened Def Con from 0.0421915 to 0.0421915
Heightened Def Con from 0.0421915 to 0.0421915
Heightened Def Con from 0.0421915 ++++to 0.0421915
Heightened Def Con from 0.0421915 to 0.0421915
Heightened Def Con from 0.0421915 +++to 0.0421915
Heightened Def Con from 0.0421915 ++to 0.0421915
Heightened Def Con from 0.0421915 ++to 0.0421915
Heightened Def Con from 0.0421915 ++++to 0.0421915
Heightened Def Con from 0.0421915 ++to 0.0421915
Heightened Def Con from 0.0421915 ++to 0.0421915
Heightened Def Con from 0.0421915 +++to 0.0421915
Heightened Def Con from 0.0421915 +++to 0.0421915
Heightened Def Con from 0.0421915 ++to 0.0421915
Heightened Def Con from 0.0421915 to 0.0421915
Heightened Def Con from 0.0421915 to 0.0421915
Heightened Def Con from 0.0421915 +++to 0.0421915
Heightened Def Con from 0.0421915 +++to 0.0421915
Heightened Def Con from 0.0421915 ++to 0.0421915
Heightened Def Con from 0.0421915 ++to 0.0421915
Heightened Def Con from 0.0421915 to 0.0421915
Heightened Def Con from 0.0421915 +++to 0.0421915
Heightened Def Con from 0.0421915 ++to 0.0421915
Heightened Def Con from 0.0421915 to 0.0421915
Heightened Def Con from 0.0421915 ++++to 0.0421915
Heightened Def Con from 0.0421915 ++to 0.0421915
Heightened Def Con from 0.0421915 ++to 0.0421915
Heightened Def Con from 0.0421915 ++to 0.0421915
Heightened Def Con from 0.0421915 ++++to 0.0421915
Heightened Def Con from 0.0421915 ++to 0.0421915
Heightened Def Con from 0.0421915 ++to 0.0421915
Heightened Def Con from 0.0421915 ++++to 0.0421915
Heightened Def Con from 0.0421915 ++to 0.0421915
Heightened Def Con from 0.0421915 to 0.0421915
Heightened Def Con from 0.0421915 ++++to 0.0421915
Heightened Def Con from 0.0421915 +++to 0.0421915
Heightened Def Con from 0.0421915 ++++to 0.0421915
Heightened Def Con from 0.0421915 ++to 0.0421915
Heightened Def Con from 0.0421915 to 0.0421915
Heightened Def Con from 0.0421915 to 0.0421915
Heightened Def Con from 0.0421915 to 0.0421915
Heightened Def Con from 0.0421915 to 0.0421915
Heightened Def Con from 0.0421915 to 0.0421915
Heightened Def Con from 0.0421915 ++to 0.0421915
Heightened Def Con from 0.0421915 ++to 0.0421915
Heightened Def Con from 0.0421915 +++to 0.0421915
Heightened Def Con from 0.0421915 +++to 0.0421915
Heightened Def Con from 0.0421915 to 0.0421915
Heightened Def Con from 0.0421915 to 0.0421915
Heightened Def Con from 0.0421915 to 0.0421915
Heightened Def Con from 0.0421915 to 0.0421915
Heightened Def Con from 0.0421915 to 0.0421915
Heightened Def Con from 0.0421915 to 0.0421915
Heightened Def Con from 0.0421915 to 0.0421915
Heightened Def Con from 0.0421915 to 0.0421915
Heightened Def Con from 0.0421915 to 0.0421915
Heightened Def Con from 0.0421915 to 0.0421915
Heightened Def Con from 0.0421915 to 0.0421915
Heightened Def Con from 0.0421915 to 0.0421915
Heightened Def Con from 0.0421915 to 0.0421915
Heightened Def Con from 0.0421915 +++to 0.0421915
Heightened Def Con from 0.0421915 to 0.0421915
Heightened Def Con from 0.0421915 ++to 0.0421915
Heightened Def Con from 0.0421915 to 0.0421915
Heightened Def Con from 0.0421915 ++to 0.0421915
Heightened Def Con from 0.0421915 to 0.0421915
Heightened Def Con from 0.0421915 +++to 0.0421915
Heightened Def Con from 0.0421915 ++to 0.0421915
Heightened Def Con from 0.0421915 to 0.0421915
Heightened Def Con from 0.0421915 to 0.0421915
Heightened Def Con from 0.0421915 to 0.0421915
Heightened Def Con from 0.0421915 to 0.0421915
Heightened Def Con from 0.0421915 to 0.0421915
Heightened Def Con from 0.0421915 to 0.0421915
Heightened Def Con from 0.0421915 to 0.0421915
Heightened Def Con from 0.0421915 to 0.0421915
Heightened Def Con from 0.0421915 to 0.0421915
Heightened Def Con from 0.0421915 ++++to 0.0421915
Heightened Def Con from 0.0421915 ++to 0.0421915
Heightened Def Con from 0.0421915 ++to 0.0421915
Heightened Def Con from 0.0421915 ++to 0.0421915
Heightened Def Con from 0.0421915 ++to 0.0421915
Heightened Def Con from 0.0421915 to 0.0421915
Heightened Def Con from 0.0421915 to 0.0421915
Heightened Def Con from 0.0421915 to 0.0421915
Heightened Def Con from 0.0421915 ++++to 0.0421915
Heightened Def Con from 0.0421915 +++to 0.0421915
Heightened Def Con from 0.0421915 to 0.0421915
Heightened Def Con from 0.0421915 to 0.0421915
Heightened Def Con from 0.0421915 to 0.0421915
Heightened Def Con from 0.0421915 to 0.0421915
Heightened Def Con from 0.0421915 ++++to 0.0421915
Heightened Def Con from 0.0421915 +++to 0.0421915
Heightened Def Con from 0.0421915 to 0.0421915
Heightened Def Con from 0.0421915 ++++to 0.0421915
Heightened Def Con from 0.0421915 ++to 0.0421915
Heightened Def Con from 0.0421915 +++to 0.0421915
Heightened Def Con from 0.0421915 ++to 0.0421915
Heightened Def Con from 0.0421915 ++to 0.0421915
Heightened Def Con from 0.0421915 ++to 0.0421915
Heightened Def Con from 0.0421915 to 0.0421915
Heightened Def Con from 0.0421915 to 0.0421915
Heightened Def Con from 0.0421915 ++to 0.0421915
Heightened Def Con from 0.0421915 ++++to 0.0421915
Heightened Def Con from 0.0421915 +++to 0.0421915
Heightened Def Con from 0.0421915 ++++to 0.0421915
Heightened Def Con from 0.0421915 +++to 0.0421915
Heightened Def Con from 0.0421915 ++to 0.0421915
Heightened Def Con from 0.0421915 ++to 0.0421915
Heightened Def Con from 0.0421915 ++to 0.0421915
Heightened Def Con from 0.0421915 ++to 0.0421915
Heightened Def Con from 0.0421915 ++to 0.0421915
Heightened Def Con from 0.0421915 ++to 0.0421915
Heightened Def Con from 0.0421915 ++to 0.0421915
Heightened Def Con from 0.0421915 to 0.0421915
Heightened Def Con from 0.0421915 to 0.0421915
Heightened Def Con from 0.0421915 to 0.0421915
Heightened Def Con from 0.0421915 to 0.0421915
Heightened Def Con from 0.0421915 to 0.0421915
Heightened Def Con from 0.0421915 to 0.0421915
Heightened Def Con from 0.0421915 +++to 0.0421915
Heightened Def Con from 0.0421915 ++++to 0.0421915
Heightened Def Con from 0.0421915 ++++to 0.0421915
Heightened Def Con from 0.0421915 ++to 0.0421915
Heightened Def Con from 0.0421915 to 0.0421915
Heightened Def Con from 0.0421915 ++to 0.0421915
Heightened Def Con from 0.0421915 ++to 0.0421915
Heightened Def Con from 0.0421915 to 0.0421915
Heightened Def Con from 0.0421915 to 0.0421915
Heightened Def Con from 0.0421915 to 0.0421915
Heightened Def Con from 0.0421915 to 0.0421915
Heightened Def Con from 0.0421915 to 0.0421915
Heightened Def Con from 0.0421915 ++to 0.0421915
Heightened Def Con from 0.0421915 +++to 0.0421915
Heightened Def Con from 0.0421915 ++to 0.0421915
Heightened Def Con from 0.0421915 +++to 0.0421915
Heightened Def Con from 0.0421915 ++++to 0.0421915
Heightened Def Con from 0.0421915 +++to 0.0421915
Heightened Def Con from 0.0421915 ++++to 0.0421915
Heightened Def Con from 0.0421915 ++to 0.0421915
Heightened Def Con from 0.0421915 ++to 0.0421915
Heightened Def Con from 0.0421915 ++to 0.0421915
Heightened Def Con from 0.0421915 ++to 0.0421916
Heightened Def Con from 0.0421916 to 0.0421916
Heightened Def Con from 0.0421916 +++to 0.0421916
Heightened Def Con from 0.0421916 to 0.0421916
Heightened Def Con from 0.0421916 to 0.0421916
Heightened Def Con from 0.0421916 to 0.0421916
Heightened Def Con from 0.0421916 to 0.0421916
Heightened Def Con from 0.0421916 to 0.0421916
Heightened Def Con from 0.0421916 to 0.0421916
Heightened Def Con from 0.0421916 to 0.0421916
Heightened Def Con from 0.0421916 to 0.0421916
Heightened Def Con from 0.0421916 to 0.0421916
Heightened Def Con from 0.0421916 to 0.0421916
Heightened Def Con from 0.0421916 to 0.0421916
Heightened Def Con from 0.0421916 to 0.0421916
Heightened Def Con from 0.0421916 to 0.0421916
Heightened Def Con from 0.0421916 to 0.0421916
Heightened Def Con from 0.0421916 to 0.0421916
Heightened Def Con from 0.0421916 to 0.0421916
Heightened Def Con from 0.0421916 to 0.0421916
Heightened Def Con from 0.0421916 to 0.0421916
Heightened Def Con from 0.0421916 to 0.0421916
Heightened Def Con from 0.0421916 to 0.0421916
Heightened Def Con from 0.0421916 to 0.0421916
Heightened Def Con from 0.0421916 to 0.0421916
Heightened Def Con from 0.0421916 ++to 0.0421916
Heightened Def Con from 0.0421916 ++to 0.0421916
Heightened Def Con from 0.0421916 ++++to 0.0421916
Heightened Def Con from 0.0421916 ++to 0.0421916
Heightened Def Con from 0.0421916 to 0.0421916
Heightened Def Con from 0.0421916 +++to 0.0421916
Heightened Def Con from 0.0421916 +++to 0.0421916
Heightened Def Con from 0.0421916 to 0.0421916
Heightened Def Con from 0.0421916 to 0.0421916
Heightened Def Con from 0.0421916 to 0.0421916
Heightened Def Con from 0.0421916 +++to 0.0421916
Heightened Def Con from 0.0421916 to 0.0421916
Heightened Def Con from 0.0421916 to 0.0421916
Heightened Def Con from 0.0421916 to 0.0421916
Heightened Def Con from 0.0421916 ++to 0.0421916
Heightened Def Con from 0.0421916 ++to 0.0421916
Heightened Def Con from 0.0421916 to 0.0421916
Heightened Def Con from 0.0421916 ++to 0.0421916
Heightened Def Con from 0.0421916 ++to 0.0421916
Heightened Def Con from 0.0421916 ++to 0.0421916
Heightened Def Con from 0.0421916 +++to 0.0421916
Heightened Def Con from 0.0421916 ++to 0.0421916
Heightened Def Con from 0.0421916 to 0.0421916
Heightened Def Con from 0.0421916 ++to 0.0421916
Heightened Def Con from 0.0421916 +++to 0.0421916
Heightened Def Con from 0.0421916 ++to 0.0421916
Heightened Def Con from 0.0421916 to 0.0421916
Heightened Def Con from 0.0421916 to 0.0421916
Heightened Def Con from 0.0421916 to 0.0421916
Heightened Def Con from 0.0421916 ++to 0.0421916
Heightened Def Con from 0.0421916 ++to 0.0421916
Heightened Def Con from 0.0421916 to 0.0421916
Heightened Def Con from 0.0421916 +++to 0.0421916
Heightened Def Con from 0.0421916 +++to 0.0421916
Heightened Def Con from 0.0421916 ++to 0.0421916
Heightened Def Con from 0.0421916 +++to 0.0421916
Heightened Def Con from 0.0421916 ++to 0.0421916
Heightened Def Con from 0.0421916 ++to 0.0421916
Heightened Def Con from 0.0421916 to 0.0421916
Heightened Def Con from 0.0421916 to 0.0421916
Heightened Def Con from 0.0421916 to 0.0421916
Heightened Def Con from 0.0421916 to 0.0421916
Heightened Def Con from 0.0421916 ++to 0.0421916
Heightened Def Con from 0.0421916 to 0.0421916
Heightened Def Con from 0.0421916 ++to 0.0421916
Heightened Def Con from 0.0421916 to 0.0421916
Heightened Def Con from 0.0421916 ++to 0.0421916
Heightened Def Con from 0.0421916 +++to 0.0421916
Heightened Def Con from 0.0421916 ++to 0.0421916
Heightened Def Con from 0.0421916 ++to 0.0421916
Heightened Def Con from 0.0421916 +++to 0.0421916
Heightened Def Con from 0.0421916 ++to 0.0421916
Heightened Def Con from 0.0421916 to 0.0421916
Heightened Def Con from 0.0421916 +++to 0.0421916
Heightened Def Con from 0.0421916 to 0.0421916
Heightened Def Con from 0.0421916 to 0.0421916
Heightened Def Con from 0.0421916 to 0.0421916
Heightened Def Con from 0.0421916 ++++to 0.0421916
Heightened Def Con from 0.0421916 to 0.0421916
Heightened Def Con from 0.0421916 ++to 0.0421916
Heightened Def Con from 0.0421916 to 0.0421916
Heightened Def Con from 0.0421916 +++to 0.0421916
Heightened Def Con from 0.0421916 ++to 0.0421916
Heightened Def Con from 0.0421916 ++to 0.0421916
Heightened Def Con from 0.0421916 ++to 0.0421916
Heightened Def Con from 0.0421916 ++to 0.0421916
Heightened Def Con from 0.0421916 ++to 0.0421916
Heightened Def Con from 0.0421916 to 0.0421916
Heightened Def Con from 0.0421916 to 0.0421916
Heightened Def Con from 0.0421916 to 0.0421916
Heightened Def Con from 0.0421916 to 0.0421916
Heightened Def Con from 0.0421916 to 0.0421916
Heightened Def Con from 0.0421916 to 0.0421916
Heightened Def Con from 0.0421916 to 0.0421916
Heightened Def Con from 0.0421916 ++to 0.0421916
Heightened Def Con from 0.0421916 ++to 0.0421916
Heightened Def Con from 0.0421916 +++to 0.0421916
Heightened Def Con from 0.0421916 to 0.0421916
Heightened Def Con from 0.0421916 +++to 0.0421916
Heightened Def Con from 0.0421916 +++to 0.0421916
Heightened Def Con from 0.0421916 +++to 0.0421916
Heightened Def Con from 0.0421916 ++to 0.0421916
Heightened Def Con from 0.0421916 +++to 0.0421916
Heightened Def Con from 0.0421916 ++to 0.0421916
Heightened Def Con from 0.0421916 ++to 0.0421916
Heightened Def Con from 0.0421916 +++to 0.0421916
Heightened Def Con from 0.0421916 to 0.0421916
Heightened Def Con from 0.0421916 to 0.0421916
Heightened Def Con from 0.0421916 +++to 0.0421916
Heightened Def Con from 0.0421916 +++to 0.0421916
Heightened Def Con from 0.0421916 +++to 0.0421916
Heightened Def Con from 0.0421916 to 0.0421916
Heightened Def Con from 0.0421916 +++to 0.0421916
Heightened Def Con from 0.0421916 to 0.0421916
Heightened Def Con from 0.0421916 to 0.0421916
Heightened Def Con from 0.0421916 to 0.0421916
Heightened Def Con from 0.0421916 +++to 0.0421916
Heightened Def Con from 0.0421916 ++to 0.0421916
Heightened Def Con from 0.0421916 ++to 0.0421916
Heightened Def Con from 0.0421916 ++to 0.0421916
Heightened Def Con from 0.0421916 +++to 0.0421916
Heightened Def Con from 0.0421916 +++to 0.0421916
Heightened Def Con from 0.0421916 ++to 0.0421916
Heightened Def Con from 0.0421916 ++to 0.0421916
Heightened Def Con from 0.0421916 ++to 0.0421916
Heightened Def Con from 0.0421916 ++to 0.0421916
Heightened Def Con from 0.0421916 ++to 0.0421916
Heightened Def Con from 0.0421916 ++to 0.0421916
Heightened Def Con from 0.0421916 +++to 0.0421916
Heightened Def Con from 0.0421916 ++to 0.0421916
Heightened Def Con from 0.0421916 to 0.0421916
Heightened Def Con from 0.0421916 ++to 0.0421916
Heightened Def Con from 0.0421916 to 0.0421916
Heightened Def Con from 0.0421916 to 0.0421916
Heightened Def Con from 0.0421916 +++to 0.0421916
Heightened Def Con from 0.0421916 +++to 0.0421916
Heightened Def Con from 0.0421916 to 0.0421916
Heightened Def Con from 0.0421916 +++to 0.0421916
Heightened Def Con from 0.0421916 ++to 0.0421916
Heightened Def Con from 0.0421916 +++to 0.0421916
Heightened Def Con from 0.0421916 ++to 0.0421916
Heightened Def Con from 0.0421916 +++to 0.0421916
Heightened Def Con from 0.0421916 +++to 0.0421916
Heightened Def Con from 0.0421916 ++to 0.0421916
Heightened Def Con from 0.0421916 ++to 0.0421916
Heightened Def Con from 0.0421916 ++to 0.0421916
Heightened Def Con from 0.0421916 +++to 0.0421916
Heightened Def Con from 0.0421916 ++to 0.0421916
Heightened Def Con from 0.0421916 ++to 0.0421916
Heightened Def Con from 0.0421916 +++to 0.0421916
Heightened Def Con from 0.0421916 ++to 0.0421916
Heightened Def Con from 0.0421916 ++to 0.0421916
Heightened Def Con from 0.0421916 ++to 0.0421916
Heightened Def Con from 0.0421916 ++to 0.0421916
Heightened Def Con from 0.0421916 ++to 0.0421917
Heightened Def Con from 0.0421917 ++to 0.0421917
Heightened Def Con from 0.0421917 +++to 0.0421917
Heightened Def Con from 0.0421917 ++to 0.0421917
Heightened Def Con from 0.0421917 ++to 0.0421917
Heightened Def Con from 0.0421917 ++to 0.0421917
Heightened Def Con from 0.0421917 ++to 0.0421917
Heightened Def Con from 0.0421917 ++to 0.0421917
Heightened Def Con from 0.0421917 ++to 0.0421917
Heightened Def Con from 0.0421917 ++to 0.0421917
Heightened Def Con from 0.0421917 to 0.0421917
Heightened Def Con from 0.0421917 ++to 0.0421917
Heightened Def Con from 0.0421917 to 0.0421917
Heightened Def Con from 0.0421917 +++to 0.0421917
Heightened Def Con from 0.0421917 ++to 0.0421917
Heightened Def Con from 0.0421917 ++to 0.0421917
Heightened Def Con from 0.0421917 +++to 0.0421917
Heightened Def Con from 0.0421917 +++to 0.0421917
Heightened Def Con from 0.0421917 ++to 0.0421917
Heightened Def Con from 0.0421917 ++to 0.0421917
Heightened Def Con from 0.0421917 ++to 0.0421917
Heightened Def Con from 0.0421917 ++to 0.0421917
Heightened Def Con from 0.0421917 +++to 0.0421917
Heightened Def Con from 0.0421917 +++to 0.0421917
Heightened Def Con from 0.0421917 ++to 0.0421917
Heightened Def Con from 0.0421917 +++to 0.0421917
Heightened Def Con from 0.0421917 ++to 0.0421917
Heightened Def Con from 0.0421917 ++to 0.0421917
Heightened Def Con from 0.0421917 ++to 0.0421917
Heightened Def Con from 0.0421917 ++to 0.0421917
Heightened Def Con from 0.0421917 ++to 0.0421917
Heightened Def Con from 0.0421917 +++to 0.0421917
Heightened Def Con from 0.0421917 ++to 0.0421917
Heightened Def Con from 0.0421917 ++to 0.0421917
Heightened Def Con from 0.0421917 to 0.0421917
Heightened Def Con from 0.0421917 to 0.0421917
Heightened Def Con from 0.0421917 +++to 0.0421917
Heightened Def Con from 0.0421917 ++to 0.0421917
Heightened Def Con from 0.0421917 ++to 0.0421917
Heightened Def Con from 0.0421917 ++to 0.0421917
Heightened Def Con from 0.0421917 ++to 0.0421917
Heightened Def Con from 0.0421917 ++to 0.0421917
Heightened Def Con from 0.0421917 ++to 0.0421917
Heightened Def Con from 0.0421917 ++to 0.0421917
Heightened Def Con from 0.0421917 +++to 0.0421917
Heightened Def Con from 0.0421917 +++to 0.0421917
Heightened Def Con from 0.0421917 to 0.0421917
Heightened Def Con from 0.0421917 to 0.0421917
Heightened Def Con from 0.0421917 to 0.0421917
Heightened Def Con from 0.0421917 to 0.0421917
Heightened Def Con from 0.0421917 to 0.0421917
Heightened Def Con from 0.0421917 to 0.0421917
Heightened Def Con from 0.0421917 to 0.0421917
Heightened Def Con from 0.0421917 to 0.0421917
Heightened Def Con from 0.0421917 to 0.0421917
Heightened Def Con from 0.0421917 to 0.0421917
Heightened Def Con from 0.0421917 to 0.0421917
Heightened Def Con from 0.0421917 to 0.0421917
Heightened Def Con from 0.0421917 to 0.0421917
Heightened Def Con from 0.0421917 to 0.0421917
Heightened Def Con from 0.0421917 to 0.0421917
Heightened Def Con from 0.0421917 to 0.0421917
Heightened Def Con from 0.0421917 to 0.0421917
Heightened Def Con from 0.0421917 to 0.0421917
Heightened Def Con from 0.0421917 to 0.0421917
Heightened Def Con from 0.0421917 +++to 0.0421917
Heightened Def Con from 0.0421917 +++to 0.0421917
Heightened Def Con from 0.0421917 to 0.0421917
Heightened Def Con from 0.0421917 to 0.0421917
Heightened Def Con from 0.0421917 to 0.0421917
Heightened Def Con from 0.0421917 ++to 0.0421917
Heightened Def Con from 0.0421917 to 0.0421917
Heightened Def Con from 0.0421917 ++to 0.0421917
Heightened Def Con from 0.0421917 ++to 0.0421917
Heightened Def Con from 0.0421917 +++to 0.0421917
Heightened Def Con from 0.0421917 ++to 0.0421917
Heightened Def Con from 0.0421917 +++to 0.0421917
Heightened Def Con from 0.0421917 ++to 0.0421917
Heightened Def Con from 0.0421917 to 0.0421917
Heightened Def Con from 0.0421917 to 0.0421917
Heightened Def Con from 0.0421917 to 0.0421917
Heightened Def Con from 0.0421917 +++to 0.0421917
Heightened Def Con from 0.0421917 ++to 0.0421917
Heightened Def Con from 0.0421917 ++to 0.0421917
Heightened Def Con from 0.0421917 ++to 0.0421917
Heightened Def Con from 0.0421917 to 0.0421917
Heightened Def Con from 0.0421917 to 0.0421917
Heightened Def Con from 0.0421917 +++to 0.0421917
Heightened Def Con from 0.0421917 to 0.0421917
Heightened Def Con from 0.0421917 ++to 0.0421917
Heightened Def Con from 0.0421917 to 0.0421917
Heightened Def Con from 0.0421917 to 0.0421917
Heightened Def Con from 0.0421917 to 0.0421917
Heightened Def Con from 0.0421917 to 0.0421917
Heightened Def Con from 0.0421917 +++to 0.0421917
Heightened Def Con from 0.0421917 ++to 0.0421917
Heightened Def Con from 0.0421917 to 0.0421917
Heightened Def Con from 0.0421917 ++to 0.0421917
Heightened Def Con from 0.0421917 ++to 0.0421917
Heightened Def Con from 0.0421917 +++to 0.0421917
Heightened Def Con from 0.0421917 to 0.0421917
Heightened Def Con from 0.0421917 +++to 0.0421917
Heightened Def Con from 0.0421917 to 0.0421917
Heightened Def Con from 0.0421917 to 0.0421917
Heightened Def Con from 0.0421917 +++to 0.0421917
Heightened Def Con from 0.0421917 +++to 0.0421917
Heightened Def Con from 0.0421917 +++to 0.0421917
Heightened Def Con from 0.0421917 ++to 0.0421917
Heightened Def Con from 0.0421917 ++to 0.0421917
Heightened Def Con from 0.0421917 ++to 0.0421917
Heightened Def Con from 0.0421917 +++to 0.0421917
Heightened Def Con from 0.0421917 ++to 0.0421917
Heightened Def Con from 0.0421917 to 0.0421917
Heightened Def Con from 0.0421917 to 0.0421917
Heightened Def Con from 0.0421917 to 0.0421917
Heightened Def Con from 0.0421917 +++to 0.0421917
Heightened Def Con from 0.0421917 to 0.0421917
Heightened Def Con from 0.0421917 to 0.0421917
Heightened Def Con from 0.0421917 to 0.0421917
Heightened Def Con from 0.0421917 to 0.0421917
Heightened Def Con from 0.0421917 to 0.0421917
Heightened Def Con from 0.0421917 ++to 0.0421917
Heightened Def Con from 0.0421917 ++to 0.0421917
Heightened Def Con from 0.0421917 +++to 0.0421917
Heightened Def Con from 0.0421917 ++to 0.0421917
Heightened Def Con from 0.0421917 ++to 0.0421917
Heightened Def Con from 0.0421917 to 0.0421917
Heightened Def Con from 0.0421917 to 0.0421917
Heightened Def Con from 0.0421917 to 0.0421917
Heightened Def Con from 0.0421917 to 0.0421917
Heightened Def Con from 0.0421917 to 0.0421917
Heightened Def Con from 0.0421917 +++to 0.0421917
Heightened Def Con from 0.0421917 to 0.0421917
Heightened Def Con from 0.0421917 to 0.0421917
Heightened Def Con from 0.0421917 to 0.0421917
Heightened Def Con from 0.0421917 +++to 0.0421917
Heightened Def Con from 0.0421917 to 0.0421917
Heightened Def Con from 0.0421917 +++to 0.0421917
Heightened Def Con from 0.0421917 to 0.0421917
Heightened Def Con from 0.0421917 +++to 0.0421917
Heightened Def Con from 0.0421917 ++to 0.0421917
Heightened Def Con from 0.0421917 ++to 0.0421917
Heightened Def Con from 0.0421917 to 0.0421917
Heightened Def Con from 0.0421917 +++to 0.0421917
Heightened Def Con from 0.0421917 +++to 0.0421917
Heightened Def Con from 0.0421917 ++to 0.0421917
Heightened Def Con from 0.0421917 ++to 0.0421917
Heightened Def Con from 0.0421917 ++to 0.0421917
Heightened Def Con from 0.0421917 ++to 0.0421917
Heightened Def Con from 0.0421917 ++to 0.0421917
Heightened Def Con from 0.0421917 +++to 0.0421917
Heightened Def Con from 0.0421917 +++to 0.0421917
Heightened Def Con from 0.0421917 ++to 0.0421917
Heightened Def Con from 0.0421917 ++to 0.0421917
Heightened Def Con from 0.0421917 +++to 0.0421917
Heightened Def Con from 0.0421917 ++to 0.0421917
Heightened Def Con from 0.0421917 ++to 0.0421918
Heightened Def Con from 0.0421918 ++to 0.0421918
Heightened Def Con from 0.0421918 ++to 0.0421918
Heightened Def Con from 0.0421918 ++to 0.0421918
Heightened Def Con from 0.0421918 ++to 0.0421918
Heightened Def Con from 0.0421918 +++to 0.0421918
Heightened Def Con from 0.0421918 ++to 0.0421918
Heightened Def Con from 0.0421918 ++to 0.0421918
Heightened Def Con from 0.0421918 ++to 0.0421918
Heightened Def Con from 0.0421918 ++to 0.0421918
Heightened Def Con from 0.0421918 ++to 0.0421918
Heightened Def Con from 0.0421918 ++to 0.0421918
Heightened Def Con from 0.0421918 ++to 0.0421918
Heightened Def Con from 0.0421918 ++to 0.0421918
Heightened Def Con from 0.0421918 to 0.0421918
Heightened Def Con from 0.0421918 +++to 0.0421918
Heightened Def Con from 0.0421918 to 0.0421918
Heightened Def Con from 0.0421918 to 0.0421918
Heightened Def Con from 0.0421918 +++to 0.0421918
Heightened Def Con from 0.0421918 ++to 0.0421918
Heightened Def Con from 0.0421918 +++to 0.0421918
Heightened Def Con from 0.0421918 +++to 0.0421918
Heightened Def Con from 0.0421918 ++to 0.0421918
Heightened Def Con from 0.0421918 ++to 0.0421918
Heightened Def Con from 0.0421918 ++to 0.0421918
Heightened Def Con from 0.0421918 ++to 0.0421918
Heightened Def Con from 0.0421918 +++to 0.0421918
Heightened Def Con from 0.0421918 +++to 0.0421918
Heightened Def Con from 0.0421918 ++to 0.0421918
Heightened Def Con from 0.0421918 ++to 0.0421918
Heightened Def Con from 0.0421918 ++to 0.0421918
Heightened Def Con from 0.0421918 +++to 0.0421918
Heightened Def Con from 0.0421918 ++to 0.0421918
Heightened Def Con from 0.0421918 ++to 0.0421918
Heightened Def Con from 0.0421918 ++to 0.0421918
Heightened Def Con from 0.0421918 +++to 0.0421918
Heightened Def Con from 0.0421918 ++to 0.0421918
Heightened Def Con from 0.0421918 ++to 0.0421918
Heightened Def Con from 0.0421918 ++to 0.0421918
Heightened Def Con from 0.0421918 ++to 0.0421918
Heightened Def Con from 0.0421918 ++to 0.0421918
Heightened Def Con from 0.0421918 +++to 0.0421918
Heightened Def Con from 0.0421918 ++to 0.0421918
Heightened Def Con from 0.0421918 +++to 0.0421918
Heightened Def Con from 0.0421918 +++to 0.0421918
Heightened Def Con from 0.0421918 ++to 0.0421918
Heightened Def Con from 0.0421918 ++to 0.0421918
Heightened Def Con from 0.0421918 ++to 0.0421918
Heightened Def Con from 0.0421918 ++to 0.0421918
Heightened Def Con from 0.0421918 ++to 0.0421918
Heightened Def Con from 0.0421918 ++to 0.0421918
Heightened Def Con from 0.0421918 +++to 0.0421918
Heightened Def Con from 0.0421918 ++to 0.0421918
Heightened Def Con from 0.0421918 ++to 0.0421918
Heightened Def Con from 0.0421918 ++to 0.0421918
Heightened Def Con from 0.0421918 ++to 0.0421918
Heightened Def Con from 0.0421918 +++to 0.0421918
Heightened Def Con from 0.0421918 ++to 0.0421918
Heightened Def Con from 0.0421918 ++to 0.0421918
Heightened Def Con from 0.0421918 ++to 0.0421918
Heightened Def Con from 0.0421918 ++to 0.0421918
Heightened Def Con from 0.0421918 ++to 0.0421918
Heightened Def Con from 0.0421918 ++to 0.0421918
Heightened Def Con from 0.0421918 +++to 0.0421918
Heightened Def Con from 0.0421918 ++to 0.0421918
Heightened Def Con from 0.0421918 ++to 0.0421918
Heightened Def Con from 0.0421918 ++to 0.0421918
Heightened Def Con from 0.0421918 ++to 0.0421918
Heightened Def Con from 0.0421918 ++to 0.0421918
Heightened Def Con from 0.0421918 ++to 0.0421918
Heightened Def Con from 0.0421918 +++to 0.0421918
Heightened Def Con from 0.0421918 +++to 0.0421918
Heightened Def Con from 0.0421918 +++to 0.0421918
Heightened Def Con from 0.0421918 ++to 0.0421918
Heightened Def Con from 0.0421918 +++to 0.0421918
Heightened Def Con from 0.0421918 +++to 0.0421918
Heightened Def Con from 0.0421918 ++to 0.0421918
Heightened Def Con from 0.0421918 +++to 0.0421918
Heightened Def Con from 0.0421918 ++to 0.0421918
Heightened Def Con from 0.0421918 ++to 0.0421918
Heightened Def Con from 0.0421918 ++to 0.0421918
Heightened Def Con from 0.0421918 ++to 0.0421918
Heightened Def Con from 0.0421918 ++to 0.0421918
Heightened Def Con from 0.0421918 ++to 0.0421918
Heightened Def Con from 0.0421918 ++to 0.0421918
Heightened Def Con from 0.0421918 ++to 0.0421918
Heightened Def Con from 0.0421918 +++to 0.0421918
Heightened Def Con from 0.0421918 ++to 0.0421918
Heightened Def Con from 0.0421918 +++to 0.0421918
Heightened Def Con from 0.0421918 ++to 0.0421918
Heightened Def Con from 0.0421918 ++to 0.0421918
Heightened Def Con from 0.0421918 +++to 0.0421918
Heightened Def Con from 0.0421918 ++to 0.0421918
Heightened Def Con from 0.0421918 ++to 0.0421918
Heightened Def Con from 0.0421918 ++to 0.0421918
Heightened Def Con from 0.0421918 ++to 0.0421919
Heightened Def Con from 0.0421919 ++to 0.0421919
Heightened Def Con from 0.0421919 ++to 0.0421919
Heightened Def Con from 0.0421919 +++to 0.0421919
Heightened Def Con from 0.0421919 to 0.0421919
Heightened Def Con from 0.0421919 ++to 0.0421919
Heightened Def Con from 0.0421919 +++to 0.0421919
Heightened Def Con from 0.0421919 +++to 0.0421919
Heightened Def Con from 0.0421919 ++to 0.0421919
Heightened Def Con from 0.0421919 ++to 0.0421919
Heightened Def Con from 0.0421919 ++to 0.0421919
Heightened Def Con from 0.0421919 ++to 0.0421919
Heightened Def Con from 0.0421919 ++to 0.0421919
Heightened Def Con from 0.0421919 ++to 0.0421919
Heightened Def Con from 0.0421919 ++to 0.0421919
Heightened Def Con from 0.0421919 +++to 0.0421919
Heightened Def Con from 0.0421919 to 0.0421919
Heightened Def Con from 0.0421919 +++to 0.0421919
Heightened Def Con from 0.0421919 ++to 0.0421919
Heightened Def Con from 0.0421919 ++to 0.0421919
Heightened Def Con from 0.0421919 ++to 0.0421919
Heightened Def Con from 0.0421919 ++to 0.0421919
Heightened Def Con from 0.0421919 ++to 0.0421919
Heightened Def Con from 0.0421919 ++to 0.0421919
Heightened Def Con from 0.0421919 ++to 0.0421919
Heightened Def Con from 0.0421919 ++to 0.0421919
Heightened Def Con from 0.0421919 +++to 0.0421919
Heightened Def Con from 0.0421919 ++to 0.0421919
Heightened Def Con from 0.0421919 to 0.0421919
Heightened Def Con from 0.0421919 to 0.0421919
Heightened Def Con from 0.0421919 +++to 0.0421919
Heightened Def Con from 0.0421919 +++to 0.0421919
Heightened Def Con from 0.0421919 ++to 0.0421919
Heightened Def Con from 0.0421919 ++to 0.0421919
Heightened Def Con from 0.0421919 ++to 0.0421919
Heightened Def Con from 0.0421919 ++to 0.0421919
Heightened Def Con from 0.0421919 ++to 0.0421919
Heightened Def Con from 0.0421919 ++to 0.0421919
Heightened Def Con from 0.0421919 to 0.0421919
Heightened Def Con from 0.0421919 +++to 0.0421919
Heightened Def Con from 0.0421919 to 0.0421919
Heightened Def Con from 0.0421919 to 0.0421919
Heightened Def Con from 0.0421919 +++to 0.0421919
Heightened Def Con from 0.0421919 ++to 0.0421919
Heightened Def Con from 0.0421919 ++to 0.0421919
Heightened Def Con from 0.0421919 to 0.0421919
Heightened Def Con from 0.0421919 ++to 0.0421919
Heightened Def Con from 0.0421919 +++to 0.0421919
Heightened Def Con from 0.0421919 ++to 0.0421919
Heightened Def Con from 0.0421919 to 0.0421919
Heightened Def Con from 0.0421919 +++to 0.0421919
Heightened Def Con from 0.0421919 ++to 0.0421919
Heightened Def Con from 0.0421919 ++to 0.0421919
Heightened Def Con from 0.0421919 ++to 0.0421919
Heightened Def Con from 0.0421919 +++to 0.0421919
Heightened Def Con from 0.0421919 ++to 0.0421919
Heightened Def Con from 0.0421919 ++to 0.0421919
Heightened Def Con from 0.0421919 to 0.0421919
Heightened Def Con from 0.0421919 ++to 0.0421919
Heightened Def Con from 0.0421919 to 0.0421919
Heightened Def Con from 0.0421919 ++to 0.0421919
Heightened Def Con from 0.0421919 +++to 0.0421919
Heightened Def Con from 0.0421919 ++to 0.0421919
Heightened Def Con from 0.0421919 ++to 0.0421919
Heightened Def Con from 0.0421919 ++to 0.0421919
Heightened Def Con from 0.0421919 ++to 0.0421919
Heightened Def Con from 0.0421919 to 0.0421919
Heightened Def Con from 0.0421919 to 0.0421919
Heightened Def Con from 0.0421919 to 0.0421919
Heightened Def Con from 0.0421919 to 0.0421919
Heightened Def Con from 0.0421919 to 0.0421919
Heightened Def Con from 0.0421919 to 0.0421919
Heightened Def Con from 0.0421919 to 0.0421919
Heightened Def Con from 0.0421919 to 0.0421919
Heightened Def Con from 0.0421919 to 0.0421919
Heightened Def Con from 0.0421919 to 0.0421919
Heightened Def Con from 0.0421919 to 0.0421919
Heightened Def Con from 0.0421919 to 0.0421919
Heightened Def Con from 0.0421919 to 0.0421919
Heightened Def Con from 0.0421919 to 0.0421919
Heightened Def Con from 0.0421919 to 0.0421919
Heightened Def Con from 0.0421919 to 0.0421919
Heightened Def Con from 0.0421919 to 0.0421919
Heightened Def Con from 0.0421919 to 0.0421919
Heightened Def Con from 0.0421919 to 0.0421919
Heightened Def Con from 0.0421919 to 0.0421919
Heightened Def Con from 0.0421919 to 0.0421919
Heightened Def Con from 0.0421919 to 0.0421919
Heightened Def Con from 0.0421919 to 0.0421919
Heightened Def Con from 0.0421919 to 0.0421919
Heightened Def Con from 0.0421919 to 0.0421919
Heightened Def Con from 0.0421919 to 0.0421919
Heightened Def Con from 0.0421919 to 0.0421919
Heightened Def Con from 0.0421919 to 0.0421919
Heightened Def Con from 0.0421919 to 0.0421919
Heightened Def Con from 0.0421919 to 0.0421919
Heightened Def Con from 0.0421919 to 0.0421919
Heightened Def Con from 0.0421919 to 0.0421919
Heightened Def Con from 0.0421919 to 0.0421919
Heightened Def Con from 0.0421919 to 0.0421919
Heightened Def Con from 0.0421919 to 0.0421919
Heightened Def Con from 0.0421919 to 0.0421919
Heightened Def Con from 0.0421919 to 0.0421919
Heightened Def Con from 0.0421919 to 0.0421919
Heightened Def Con from 0.0421919 to 0.0421919
Heightened Def Con from 0.0421919 to 0.0421919
Heightened Def Con from 0.0421919 to 0.0421919
Heightened Def Con from 0.0421919 to 0.0421919
Heightened Def Con from 0.0421919 to 0.0421919
Heightened Def Con from 0.0421919 to 0.0421919
Heightened Def Con from 0.0421919 to 0.0421919
Heightened Def Con from 0.0421919 to 0.0421919
Heightened Def Con from 0.0421919 to 0.0421919
Heightened Def Con from 0.0421919 +to 0.0421919
Heightened Def Con from 0.0421919 +++to 0.0421919
Heightened Def Con from 0.0421919 ++++++++to 0.0421919
Heightened Def Con from 0.0421919 ++++++++++++++to 0.0421919
Heightened Def Con from 0.0421919 ++to 0.0421919
Heightened Def Con from 0.0421919 to 0.0421919
Heightened Def Con from 0.0421919 +++to 0.0421919
Heightened Def Con from 0.0421919 +++to 0.0421919
Heightened Def Con from 0.0421919 ++++++++++++++to 0.0421919
Heightened Def Con from 0.0421919 +++to 0.0421919
Heightened Def Con from 0.0421919 +++to 0.0421919
Heightened Def Con from 0.0421919 ++to 0.0421919
Heightened Def Con from 0.0421919 ++to 0.0421919
Heightened Def Con from 0.0421919 ++to 0.0421919
Heightened Def Con from 0.0421919 ++to 0.0421919
Heightened Def Con from 0.0421919 +++to 0.0421919
Heightened Def Con from 0.0421919 ++to 0.0421919
Heightened Def Con from 0.0421919 ++to 0.0421919
Heightened Def Con from 0.0421919 +++++++++++to 0.0421919
Heightened Def Con from 0.0421919 +++to 0.0421919
Heightened Def Con from 0.0421919 ++to 0.0421919
Heightened Def Con from 0.0421919 +to 0.0421919
Heightened Def Con from 0.0421919 to 0.0421919
Heightened Def Con from 0.0421919 to 0.0421919
Heightened Def Con from 0.0421919 to 0.0421919
Heightened Def Con from 0.0421919 ++++++++++++++to 0.0421919
Heightened Def Con from 0.0421919 ++++++++++++to 0.0421919
Heightened Def Con from 0.0421919 to 0.0421919
Heightened Def Con from 0.0421919 to 0.0421919
Heightened Def Con from 0.0421919 to 0.0421919
Heightened Def Con from 0.0421919 to 0.0421919
Heightened Def Con from 0.0421919 ++++++to 0.0421919
Heightened Def Con from 0.0421919 ++++++++++++to 0.0421919
Heightened Def Con from 0.0421919 ++++++++++++to 0.0421919
Heightened Def Con from 0.0421919 to 0.0421919
Heightened Def Con from 0.0421919 +++++++++to 0.0421919
Heightened Def Con from 0.0421919 +++++++++to 0.0421919
Heightened Def Con from 0.0421919 +++++++++to 0.0421919
Heightened Def Con from 0.0421919 to 0.0421919
Heightened Def Con from 0.0421919 ++++++++++++to 0.0421919
Heightened Def Con from 0.0421919 +to 0.0421919
Heightened Def Con from 0.0421919 +++++++++++++to 0.0421919
Heightened Def Con from 0.0421919 ++++++++to 0.0421919
Heightened Def Con from 0.0421919 +++++++++++++to 0.0421919
Heightened Def Con from 0.0421919 +++++++++++++to 0.0421919
Heightened Def Con from 0.0421919 +++++++++++++to 0.0421919
Heightened Def Con from 0.0421919 ++++++++++++++to 0.0421919
Heightened Def Con from 0.0421919 to 0.0421919
Heightened Def Con from 0.0421919 to 0.0421919
Heightened Def Con from 0.0421919 +++to 0.0421919
Heightened Def Con from 0.0421919 +++to 0.042192
Heightened Def Con from 0.042192 ++to 0.042192
Heightened Def Con from 0.042192 ++to 0.042192
Heightened Def Con from 0.042192 to 0.042192
Heightened Def Con from 0.042192 +++to 0.042192
Heightened Def Con from 0.042192 to 0.042192
Heightened Def Con from 0.042192 to 0.042192
Heightened Def Con from 0.042192 +to 0.042192
Heightened Def Con from 0.042192 +to 0.042192
Heightened Def Con from 0.042192 to 0.042192
Heightened Def Con from 0.042192 +++to 0.042192
Heightened Def Con from 0.042192 ++to 0.042192
Heightened Def Con from 0.042192 ++to 0.042192
Heightened Def Con from 0.042192 to 0.042192
Heightened Def Con from 0.042192 to 0.042192
Heightened Def Con from 0.042192 +++to 0.042192
Heightened Def Con from 0.042192 ++to 0.042192
Heightened Def Con from 0.042192 ++to 0.042192
Heightened Def Con from 0.042192 to 0.042192
Heightened Def Con from 0.042192 +to 0.042192
Heightened Def Con from 0.042192 ++to 0.042192
Heightened Def Con from 0.042192 +++to 0.042192
Heightened Def Con from 0.042192 +++to 0.042192
Heightened Def Con from 0.042192 ++to 0.042192
Heightened Def Con from 0.042192 ++to 0.042192
Heightened Def Con from 0.042192 +++to 0.042192
Heightened Def Con from 0.042192 +++to 0.042192
Heightened Def Con from 0.042192 ++to 0.042192
Heightened Def Con from 0.042192 ++to 0.042192
Heightened Def Con from 0.042192 ++to 0.042192
Heightened Def Con from 0.042192 +++to 0.042192
Heightened Def Con from 0.042192 +++to 0.042192
Heightened Def Con from 0.042192 ++to 0.042192
Heightened Def Con from 0.042192 ++to 0.042192
Heightened Def Con from 0.042192 +++to 0.042192
Heightened Def Con from 0.042192 +++to 0.042192
Heightened Def Con from 0.042192 to 0.042192
Heightened Def Con from 0.042192 ++to 0.042192
Heightened Def Con from 0.042192 +to 0.042192
Heightened Def Con from 0.042192 +to 0.042192
Heightened Def Con from 0.042192 +to 0.042192
Heightened Def Con from 0.042192 +to 0.042192
Heightened Def Con from 0.042192 +to 0.042192
Heightened Def Con from 0.042192 to 0.042192
Heightened Def Con from 0.042192 +++to 0.042192
Heightened Def Con from 0.042192 ++to 0.042192
Heightened Def Con from 0.042192 ++to 0.042192
Heightened Def Con from 0.042192 +++to 0.042192
Heightened Def Con from 0.042192 ++to 0.042192
Heightened Def Con from 0.042192 +to 0.042192
Heightened Def Con from 0.042192 to 0.042192
Heightened Def Con from 0.042192 +++to 0.042192
Heightened Def Con from 0.042192 +++to 0.042192
Heightened Def Con from 0.042192 ++to 0.042192
Heightened Def Con from 0.042192 +++to 0.042192
Heightened Def Con from 0.042192 ++to 0.042192
Heightened Def Con from 0.042192 ++to 0.042192
Heightened Def Con from 0.042192 ++to 0.042192
Heightened Def Con from 0.042192 +++to 0.042192
Heightened Def Con from 0.042192 ++to 0.042192
Heightened Def Con from 0.042192 ++to 0.042192
Heightened Def Con from 0.042192 ++to 0.042192
Heightened Def Con from 0.042192 ++to 0.042192
Heightened Def Con from 0.042192 ++to 0.042192
Heightened Def Con from 0.042192 ++to 0.042192
Heightened Def Con from 0.042192 +++to 0.042192
Heightened Def Con from 0.042192 +++to 0.042192
Heightened Def Con from 0.042192 to 0.042192
Heightened Def Con from 0.042192 +to 0.042192
Heightened Def Con from 0.042192 +to 0.042192
Heightened Def Con from 0.042192 +to 0.042192
Heightened Def Con from 0.042192 +to 0.042192
Heightened Def Con from 0.042192 +to 0.042192
Heightened Def Con from 0.042192 +to 0.042192
Heightened Def Con from 0.042192 to 0.042192
Heightened Def Con from 0.042192 +++to 0.042192
Heightened Def Con from 0.042192 ++to 0.042192
Heightened Def Con from 0.042192 ++to 0.042192
Heightened Def Con from 0.042192 ++to 0.042192
Heightened Def Con from 0.042192 to 0.042192
Heightened Def Con from 0.042192 to 0.042192
Heightened Def Con from 0.042192 ++++to 0.042192
Heightened Def Con from 0.042192 ++to 0.042192
Heightened Def Con from 0.042192 ++to 0.042192
Heightened Def Con from 0.042192 ++to 0.042192
Heightened Def Con from 0.042192 ++to 0.042192
Heightened Def Con from 0.042192 ++to 0.042192
Heightened Def Con from 0.042192 ++to 0.042192
Heightened Def Con from 0.042192 ++to 0.042192
Heightened Def Con from 0.042192 +++to 0.042192
Heightened Def Con from 0.042192 +++to 0.042192
Heightened Def Con from 0.042192 +++to 0.042192
Heightened Def Con from 0.042192 to 0.042192
Heightened Def Con from 0.042192 +++to 0.042192
Heightened Def Con from 0.042192 ++to 0.042192
Heightened Def Con from 0.042192 ++to 0.042192
Heightened Def Con from 0.042192 ++to 0.042192
Heightened Def Con from 0.042192 ++to 0.042192
Heightened Def Con from 0.042192 ++to 0.042192
Heightened Def Con from 0.042192 ++to 0.042192
Heightened Def Con from 0.042192 to 0.042192
Heightened Def Con from 0.042192 +++to 0.042192
Heightened Def Con from 0.042192 to 0.042192
Heightened Def Con from 0.042192 to 0.042192
Heightened Def Con from 0.042192 +++to 0.042192
Heightened Def Con from 0.042192 +++to 0.042192
Heightened Def Con from 0.042192 +++to 0.042192
Heightened Def Con from 0.042192 +++to 0.042192
Heightened Def Con from 0.042192 +++to 0.042192
Heightened Def Con from 0.042192 ++to 0.042192
Heightened Def Con from 0.042192 ++to 0.042192
Heightened Def Con from 0.042192 +++to 0.042192
Heightened Def Con from 0.042192 +++to 0.042192
Heightened Def Con from 0.042192 +++to 0.042192
Heightened Def Con from 0.042192 ++to 0.042192
Heightened Def Con from 0.042192 ++to 0.042192
Heightened Def Con from 0.042192 ++to 0.042192
Heightened Def Con from 0.042192 to 0.042192
Heightened Def Con from 0.042192 ++to 0.0421921
Heightened Def Con from 0.0421921 to 0.0421921
Heightened Def Con from 0.0421921 ++++++++++to 0.0421921
Heightened Def Con from 0.0421921 to 0.0421921
Heightened Def Con from 0.0421921 to 0.0421921
Heightened Def Con from 0.0421921 to 0.0421921
Heightened Def Con from 0.0421921 to 0.0421921
Heightened Def Con from 0.0421921 to 0.0421921
Heightened Def Con from 0.0421921 to 0.0421921
Heightened Def Con from 0.0421921 +++to 0.0421921
Heightened Def Con from 0.0421921 +++to 0.0421921
Heightened Def Con from 0.0421921 +++to 0.0421921
Heightened Def Con from 0.0421921 ++++++++++++++to 0.0421921
Heightened Def Con from 0.0421921 +++to 0.0421921
Heightened Def Con from 0.0421921 to 0.0421921
Heightened Def Con from 0.0421921 to 0.0421921
Heightened Def Con from 0.0421921 to 0.0421921
Heightened Def Con from 0.0421921 to 0.0421921
Heightened Def Con from 0.0421921 +++to 0.0421921
Heightened Def Con from 0.0421921 ++to 0.0421921
Heightened Def Con from 0.0421921 ++to 0.0421921
Heightened Def Con from 0.0421921 to 0.0421921
Heightened Def Con from 0.0421921 +++to 0.0421921
Heightened Def Con from 0.0421921 +++to 0.0421921
Heightened Def Con from 0.0421921 +++to 0.0421921
Heightened Def Con from 0.0421921 +++to 0.0421921
Heightened Def Con from 0.0421921 +++to 0.0421921
Heightened Def Con from 0.0421921 +++to 0.0421921
Heightened Def Con from 0.0421921 ++to 0.0421921
Heightened Def Con from 0.0421921 to 0.0421921
Heightened Def Con from 0.0421921 to 0.0421921
Heightened Def Con from 0.0421921 to 0.0421921
Heightened Def Con from 0.0421921 to 0.0421921
Heightened Def Con from 0.0421921 to 0.0421921
Heightened Def Con from 0.0421921 to 0.0421921
Heightened Def Con from 0.0421921 to 0.0421921
Heightened Def Con from 0.0421921 to 0.0421921
Heightened Def Con from 0.0421921 to 0.0421921
Heightened Def Con from 0.0421921 to 0.0421921
Heightened Def Con from 0.0421921 to 0.0421921
Heightened Def Con from 0.0421921 to 0.0421921
Heightened Def Con from 0.0421921 to 0.0421921
Heightened Def Con from 0.0421921 ++to 0.0421921
Heightened Def Con from 0.0421921 to 0.0421921
Heightened Def Con from 0.0421921 to 0.0421921
Heightened Def Con from 0.0421921 to 0.0421921
Heightened Def Con from 0.0421921 to 0.0421921
Heightened Def Con from 0.0421921 +++to 0.0421921
Heightened Def Con from 0.0421921 +++to 0.0421921
Heightened Def Con from 0.0421921 ++to 0.0421921
Heightened Def Con from 0.0421921 +++to 0.0421921
Heightened Def Con from 0.0421921 ++to 0.0421921
Heightened Def Con from 0.0421921 ++to 0.0421921
Heightened Def Con from 0.0421921 +++to 0.0421921
Heightened Def Con from 0.0421921 ++to 0.0421921
Heightened Def Con from 0.0421921 to 0.0421921
Heightened Def Con from 0.0421921 to 0.0421921
Heightened Def Con from 0.0421921 +++to 0.0421921
Heightened Def Con from 0.0421921 +++to 0.0421921
Heightened Def Con from 0.0421921 +++to 0.0421921
Heightened Def Con from 0.0421921 +++to 0.0421921
Heightened Def Con from 0.0421921 +++to 0.0421921
Heightened Def Con from 0.0421921 +++to 0.0421921
Heightened Def Con from 0.0421921 +++to 0.0421921
Heightened Def Con from 0.0421921 +++to 0.0421921
Heightened Def Con from 0.0421921 ++to 0.0421921
Heightened Def Con from 0.0421921 +++to 0.0421921
Heightened Def Con from 0.0421921 +++to 0.0421921
Heightened Def Con from 0.0421921 ++to 0.0421921
Heightened Def Con from 0.0421921 +++to 0.0421921
Heightened Def Con from 0.0421921 +++to 0.0421921
Heightened Def Con from 0.0421921 +++to 0.0421921
Heightened Def Con from 0.0421921 +++to 0.0421921
Heightened Def Con from 0.0421921 +++to 0.0421921
Heightened Def Con from 0.0421921 ++to 0.0421921
Heightened Def Con from 0.0421921 +++to 0.0421921
Heightened Def Con from 0.0421921 +++to 0.0421921
Heightened Def Con from 0.0421921 ++++to 0.0421921
Heightened Def Con from 0.0421921 +++to 0.0421921
Heightened Def Con from 0.0421921 ++++to 0.0421921
Heightened Def Con from 0.0421921 ++++to 0.0421921
Heightened Def Con from 0.0421921 +++to 0.0421921
Heightened Def Con from 0.0421921 to 0.0421921
Heightened Def Con from 0.0421921 to 0.0421921
Heightened Def Con from 0.0421921 to 0.0421921
Heightened Def Con from 0.0421921 ++to 0.0421921
Heightened Def Con from 0.0421921 to 0.0421921
Heightened Def Con from 0.0421921 ++++to 0.0421921
Heightened Def Con from 0.0421921 +++to 0.0421921
Heightened Def Con from 0.0421921 ++++to 0.0421921
Heightened Def Con from 0.0421921 ++++++++++++++to 0.0421921
Heightened Def Con from 0.0421921 ++to 0.0421921
Heightened Def Con from 0.0421921 to 0.0421921
Heightened Def Con from 0.0421921 to 0.0421921
Heightened Def Con from 0.0421921 to 0.0421921
Heightened Def Con from 0.0421921 ++to 0.0421921
Heightened Def Con from 0.0421921 ++to 0.0421921
Heightened Def Con from 0.0421921 +++to 0.0421921
Heightened Def Con from 0.0421921 to 0.0421921
Heightened Def Con from 0.0421921 to 0.0421921
Heightened Def Con from 0.0421921 to 0.0421921
Heightened Def Con from 0.0421921 ++to 0.0421921
Heightened Def Con from 0.0421921 +++to 0.0421921
Heightened Def Con from 0.0421921 +++to 0.0421921
Heightened Def Con from 0.0421921 ++++to 0.0421921
Heightened Def Con from 0.0421921 to 0.0421921
Heightened Def Con from 0.0421921 +++to 0.0421921
Heightened Def Con from 0.0421921 ++to 0.0421921
Heightened Def Con from 0.0421921 to 0.0421921
Heightened Def Con from 0.0421921 to 0.0421921
Heightened Def Con from 0.0421921 ++to 0.0421921
Heightened Def Con from 0.0421921 ++to 0.0421921
Heightened Def Con from 0.0421921 ++to 0.0421921
Heightened Def Con from 0.0421921 ++to 0.0421921
Heightened Def Con from 0.0421921 ++to 0.0421921
Heightened Def Con from 0.0421921 ++to 0.0421921
Heightened Def Con from 0.0421921 ++to 0.0421921
Heightened Def Con from 0.0421921 ++to 0.0421921
Heightened Def Con from 0.0421921 ++to 0.0421921
Heightened Def Con from 0.0421921 ++to 0.0421921
Heightened Def Con from 0.0421921 ++++to 0.0421921
Heightened Def Con from 0.0421921 ++to 0.0421921
Heightened Def Con from 0.0421921 +++to 0.0421921
Heightened Def Con from 0.0421921 ++to 0.0421921
Heightened Def Con from 0.0421921 to 0.0421921
Heightened Def Con from 0.0421921 +++to 0.0421922
Heightened Def Con from 0.0421922 ++to 0.0421922
Heightened Def Con from 0.0421922 +++to 0.0421922
Heightened Def Con from 0.0421922 +++to 0.0421922
Heightened Def Con from 0.0421922 ++to 0.0421922
Heightened Def Con from 0.0421922 to 0.0421922
Heightened Def Con from 0.0421922 to 0.0421922
Heightened Def Con from 0.0421922 to 0.0421922
Heightened Def Con from 0.0421922 to 0.0421922
Heightened Def Con from 0.0421922 to 0.0421922
Heightened Def Con from 0.0421922 to 0.0421922
Heightened Def Con from 0.0421922 to 0.0421922
Heightened Def Con from 0.0421922 to 0.0421922
Heightened Def Con from 0.0421922 ++to 0.0421922
Heightened Def Con from 0.0421922 +++to 0.0421922
Heightened Def Con from 0.0421922 +++to 0.0421922
Heightened Def Con from 0.0421922 ++++to 0.0421922
Heightened Def Con from 0.0421922 to 0.0421922
Heightened Def Con from 0.0421922 +++to 0.0421922
Heightened Def Con from 0.0421922 ++++to 0.0421922
Heightened Def Con from 0.0421922 +++to 0.0421922
Heightened Def Con from 0.0421922 to 0.0421922
Heightened Def Con from 0.0421922 ++to 0.0421922
Heightened Def Con from 0.0421922 +++to 0.0421922
Heightened Def Con from 0.0421922 to 0.0421922
Heightened Def Con from 0.0421922 to 0.0421922
Heightened Def Con from 0.0421922 to 0.0421922
Heightened Def Con from 0.0421922 to 0.0421922
Heightened Def Con from 0.0421922 to 0.0421922
Heightened Def Con from 0.0421922 to 0.0421922
Heightened Def Con from 0.0421922 to 0.0421922
Heightened Def Con from 0.0421922 ++to 0.0421922
Heightened Def Con from 0.0421922 ++to 0.0421922
Heightened Def Con from 0.0421922 ++to 0.0421922
Heightened Def Con from 0.0421922 to 0.0421922
Heightened Def Con from 0.0421922 to 0.0421922
Heightened Def Con from 0.0421922 to 0.0421922
Heightened Def Con from 0.0421922 to 0.0421922
Heightened Def Con from 0.0421922 to 0.0421922
Heightened Def Con from 0.0421922 to 0.0421922
Heightened Def Con from 0.0421922 to 0.0421922
Heightened Def Con from 0.0421922 to 0.0421922
Heightened Def Con from 0.0421922 to 0.0421922
Heightened Def Con from 0.0421922 ++to 0.0421922
Heightened Def Con from 0.0421922 to 0.0421922
Heightened Def Con from 0.0421922 +++to 0.0421922
Heightened Def Con from 0.0421922 +++to 0.0421922
Heightened Def Con from 0.0421922 ++++to 0.0421922
Heightened Def Con from 0.0421922 +++to 0.0421922
Heightened Def Con from 0.0421922 ++++to 0.0421922
Heightened Def Con from 0.0421922 to 0.0421922
Heightened Def Con from 0.0421922 ++++++to 0.0421922
Heightened Def Con from 0.0421922 to 0.0421922
Heightened Def Con from 0.0421922 to 0.0421922
Heightened Def Con from 0.0421922 ++++++++++++to 0.0421922
Heightened Def Con from 0.0421922 +++to 0.0421922
Heightened Def Con from 0.0421922 ++++to 0.0421922
Heightened Def Con from 0.0421922 ++++to 0.0421922
Heightened Def Con from 0.0421922 ++++to 0.0421922
Heightened Def Con from 0.0421922 +++to 0.0421922
Heightened Def Con from 0.0421922 +++to 0.0421922
Heightened Def Con from 0.0421922 +++to 0.0421922
Heightened Def Con from 0.0421922 to 0.0421922
Heightened Def Con from 0.0421922 to 0.0421922
Heightened Def Con from 0.0421922 to 0.0421922
Heightened Def Con from 0.0421922 to 0.0421922
Heightened Def Con from 0.0421922 to 0.0421922
Heightened Def Con from 0.0421922 ++to 0.0421922
Heightened Def Con from 0.0421922 ++to 0.0421922
Heightened Def Con from 0.0421922 to 0.0421922
Heightened Def Con from 0.0421922 to 0.0421922
Heightened Def Con from 0.0421922 ++++to 0.0421922
Heightened Def Con from 0.0421922 to 0.0421922
Heightened Def Con from 0.0421922 to 0.0421922
Heightened Def Con from 0.0421922 +++to 0.0421922
Heightened Def Con from 0.0421922 to 0.0421922
Heightened Def Con from 0.0421922 to 0.0421922
Heightened Def Con from 0.0421922 to 0.0421922
Heightened Def Con from 0.0421922 to 0.0421922
Heightened Def Con from 0.0421922 to 0.0421922
Heightened Def Con from 0.0421922 to 0.0421922
Heightened Def Con from 0.0421922 to 0.0421922
Heightened Def Con from 0.0421922 to 0.0421922
Heightened Def Con from 0.0421922 to 0.0421922
Heightened Def Con from 0.0421922 to 0.0421922
Heightened Def Con from 0.0421922 to 0.0421922
Heightened Def Con from 0.0421922 to 0.0421922
Heightened Def Con from 0.0421922 ++to 0.0421922
Heightened Def Con from 0.0421922 +++to 0.0421922
Heightened Def Con from 0.0421922 to 0.0421922
Heightened Def Con from 0.0421922 ++++++to 0.0421922
Heightened Def Con from 0.0421922 to 0.0421922
Heightened Def Con from 0.0421922 to 0.0421922
Heightened Def Con from 0.0421922 to 0.0421922
Heightened Def Con from 0.0421922 to 0.0421922
Heightened Def Con from 0.0421922 +++to 0.0421922
Heightened Def Con from 0.0421922 to 0.0421922
Heightened Def Con from 0.0421922 to 0.0421922
Heightened Def Con from 0.0421922 to 0.0421922
Heightened Def Con from 0.0421922 to 0.0421922
Heightened Def Con from 0.0421922 to 0.0421922
Heightened Def Con from 0.0421922 to 0.0421922
Heightened Def Con from 0.0421922 to 0.0421922
Heightened Def Con from 0.0421922 to 0.0421922
Heightened Def Con from 0.0421922 to 0.0421922
Heightened Def Con from 0.0421922 to 0.0421922
Heightened Def Con from 0.0421922 to 0.0421922
Heightened Def Con from 0.0421922 to 0.0421922
Heightened Def Con from 0.0421922 to 0.0421922
Heightened Def Con from 0.0421922 ++++++to 0.0421922
Heightened Def Con from 0.0421922 to 0.0421922
Heightened Def Con from 0.0421922 to 0.0421922
Heightened Def Con from 0.0421922 to 0.0421922
Heightened Def Con from 0.0421922 to 0.0421922
Heightened Def Con from 0.0421922 ++to 0.0421922
Heightened Def Con from 0.0421922 ++to 0.0421922
Heightened Def Con from 0.0421922 to 0.0421922
Heightened Def Con from 0.0421922 to 0.0421922
Heightened Def Con from 0.0421922 to 0.0421922
Heightened Def Con from 0.0421922 to 0.0421922
Heightened Def Con from 0.0421922 to 0.0421922
Heightened Def Con from 0.0421922 to 0.0421922
Heightened Def Con from 0.0421922 ++to 0.0421922
Heightened Def Con from 0.0421922 to 0.0421922
Heightened Def Con from 0.0421922 +++to 0.0421922
Heightened Def Con from 0.0421922 +++to 0.0421922
Heightened Def Con from 0.0421922 to 0.0421922
Heightened Def Con from 0.0421922 to 0.0421922
Heightened Def Con from 0.0421922 ++++++++++++to 0.0421922
Heightened Def Con from 0.0421922 to 0.0421922
Heightened Def Con from 0.0421922 to 0.0421922
Heightened Def Con from 0.0421922 to 0.0421922
Heightened Def Con from 0.0421922 ++++to 0.0421922
Heightened Def Con from 0.0421922 to 0.0421922
Heightened Def Con from 0.0421922 to 0.0421922
Heightened Def Con from 0.0421922 to 0.0421922
Heightened Def Con from 0.0421922 ++to 0.0421922
Heightened Def Con from 0.0421922 to 0.0421922
Heightened Def Con from 0.0421922 to 0.0421922
Heightened Def Con from 0.0421922 to 0.0421922
Heightened Def Con from 0.0421922 to 0.0421922
Heightened Def Con from 0.0421922 to 0.0421922
Heightened Def Con from 0.0421922 to 0.0421922
Heightened Def Con from 0.0421922 to 0.0421922
Heightened Def Con from 0.0421922 to 0.0421922
Heightened Def Con from 0.0421922 +++to 0.0421922
Heightened Def Con from 0.0421922 +++to 0.0421922
Heightened Def Con from 0.0421922 +++to 0.0421922
Heightened Def Con from 0.0421922 +++to 0.0421922
Heightened Def Con from 0.0421922 +++to 0.0421922
Heightened Def Con from 0.0421922 ++to 0.0421922
Heightened Def Con from 0.0421922 to 0.0421922
Heightened Def Con from 0.0421922 ++to 0.0421922
Heightened Def Con from 0.0421922 to 0.0421922
Heightened Def Con from 0.0421922 +++to 0.0421922
Heightened Def Con from 0.0421922 to 0.0421922
Heightened Def Con from 0.0421922 to 0.0421922
Heightened Def Con from 0.0421922 to 0.0421922
Heightened Def Con from 0.0421922 ++++++++++to 0.0421922
Heightened Def Con from 0.0421922 to 0.0421922
Heightened Def Con from 0.0421922 to 0.0421922
Heightened Def Con from 0.0421922 to 0.0421922
Heightened Def Con from 0.0421922 ++++++++++++to 0.0421922
Heightened Def Con from 0.0421922 +++to 0.0421922
Heightened Def Con from 0.0421922 to 0.0421922
Heightened Def Con from 0.0421922 to 0.0421922
Heightened Def Con from 0.0421922 to 0.0421922
Heightened Def Con from 0.0421922 +++++++++to 0.0421922
Heightened Def Con from 0.0421922 ++to 0.0421922
Heightened Def Con from 0.0421922 +++++++to 0.0421922
Heightened Def Con from 0.0421922 +++to 0.0421922
Heightened Def Con from 0.0421922 +++to 0.0421922
Heightened Def Con from 0.0421922 ++to 0.0421922
Heightened Def Con from 0.0421922 +++to 0.0421922
Heightened Def Con from 0.0421922 to 0.0421922
Heightened Def Con from 0.0421922 to 0.0421922
Heightened Def Con from 0.0421922 to 0.0421922
Heightened Def Con from 0.0421922 to 0.0421922
Heightened Def Con from 0.0421922 to 0.0421922
Heightened Def Con from 0.0421922 to 0.0421922
Heightened Def Con from 0.0421922 to 0.0421922
Heightened Def Con from 0.0421922 +++to 0.0421922
Heightened Def Con from 0.0421922 ++++to 0.0421922
Heightened Def Con from 0.0421922 to 0.0421922
Heightened Def Con from 0.0421922 ++++++++to 0.0421922
Heightened Def Con from 0.0421922 to 0.0421922
Heightened Def Con from 0.0421922 ++to 0.0421922
Heightened Def Con from 0.0421922 to 0.0421922
Heightened Def Con from 0.0421922 to 0.0421922
Heightened Def Con from 0.0421922 to 0.0421922
Heightened Def Con from 0.0421922 to 0.0421922
Heightened Def Con from 0.0421922 to 0.0421922
Heightened Def Con from 0.0421922 to 0.0421922
Heightened Def Con from 0.0421922 to 0.0421922
Heightened Def Con from 0.0421922 ++to 0.0421922
Heightened Def Con from 0.0421922 to 0.0421922
Heightened Def Con from 0.0421922 ++++++++++++to 0.0421922
Heightened Def Con from 0.0421922 ++++to 0.0421922
Heightened Def Con from 0.0421922 to 0.0421922
Heightened Def Con from 0.0421922 ++to 0.0421922
Heightened Def Con from 0.0421922 to 0.0421922
Heightened Def Con from 0.0421922 +++to 0.0421922
Heightened Def Con from 0.0421922 to 0.0421922
Heightened Def Con from 0.0421922 ++++++++++to 0.0421922
Heightened Def Con from 0.0421922 to 0.0421922
Heightened Def Con from 0.0421922 to 0.0421922
Heightened Def Con from 0.0421922 to 0.0421922
Heightened Def Con from 0.0421923 to 0.0421923
Heightened Def Con from 0.0421923 to 0.0421923
Heightened Def Con from 0.0421923 to 0.0421923
Heightened Def Con from 0.0421923 ++++++++++++to 0.0421923
Heightened Def Con from 0.0421923 to 0.0421923
Heightened Def Con from 0.0421923 ++++++++++to 0.0421923
Heightened Def Con from 0.0421923 to 0.0421923
Heightened Def Con from 0.0421923 to 0.0421923
Heightened Def Con from 0.0421923 to 0.0421923
Heightened Def Con from 0.0421923 ++++++++++++to 0.0421923
Heightened Def Con from 0.0421923 +++to 0.0421923
Heightened Def Con from 0.0421923 to 0.0421923
Heightened Def Con from 0.0421923 to 0.0421923
Heightened Def Con from 0.0421923 ++++++++++++to 0.0421923
Heightened Def Con from 0.0421923 to 0.0421923
Heightened Def Con from 0.0421923 to 0.0421923
Heightened Def Con from 0.0421923 to 0.0421923
Heightened Def Con from 0.0421923 to 0.0421923
Heightened Def Con from 0.0421923 to 0.0421923
Heightened Def Con from 0.0421923 to 0.0421923
Heightened Def Con from 0.0421923 to 0.0421923
Heightened Def Con from 0.0421923 to 0.0421923
Heightened Def Con from 0.0421923 to 0.0421923
Heightened Def Con from 0.0421923 to 0.0421923
Heightened Def Con from 0.0421923 to 0.0421923
Heightened Def Con from 0.0421923 to 0.0421923
Heightened Def Con from 0.0421923 to 0.0421923
Heightened Def Con from 0.0421923 +++to 0.0421923
Heightened Def Con from 0.0421923 ++++to 0.0421923
Heightened Def Con from 0.0421923 ++to 0.0421923
Heightened Def Con from 0.0421923 ++to 0.0421923
Heightened Def Con from 0.0421923 to 0.0421923
Heightened Def Con from 0.0421923 to 0.0421923
Heightened Def Con from 0.0421923 to 0.0421923
Heightened Def Con from 0.0421923 to 0.0421923
Heightened Def Con from 0.0421923 ++++++++++to 0.0421923
Heightened Def Con from 0.0421923 to 0.0421923
Heightened Def Con from 0.0421923 to 0.0421923
Heightened Def Con from 0.0421923 to 0.0421923
Heightened Def Con from 0.0421923 to 0.0421923
Heightened Def Con from 0.0421923 to 0.0421923
Heightened Def Con from 0.0421923 to 0.0421923
Heightened Def Con from 0.0421923 to 0.0421923
Heightened Def Con from 0.0421923 to 0.0421923
Heightened Def Con from 0.0421923 to 0.0421923
Heightened Def Con from 0.0421923 to 0.0421923
Heightened Def Con from 0.0421923 to 0.0421923
Heightened Def Con from 0.0421923 to 0.0421923
Heightened Def Con from 0.0421923 to 0.0421923
Heightened Def Con from 0.0421923 to 0.0421923
Heightened Def Con from 0.0421923 to 0.0421923
Heightened Def Con from 0.0421923 to 0.0421923
Heightened Def Con from 0.0421923 to 0.0421923
Heightened Def Con from 0.0421923 to 0.0421923
Heightened Def Con from 0.0421923 ++++++++++++to 0.0421923
Heightened Def Con from 0.0421923 ++to 0.0421923
Heightened Def Con from 0.0421923 ++to 0.0421923
Heightened Def Con from 0.0421923 to 0.0421923
Heightened Def Con from 0.0421923 to 0.0421923
Heightened Def Con from 0.0421923 to 0.0421923
Heightened Def Con from 0.0421923 to 0.0421923
Heightened Def Con from 0.0421923 ++++++++to 0.0421923
Heightened Def Con from 0.0421923 +++to 0.0421923
Heightened Def Con from 0.0421923 to 0.0421923
Heightened Def Con from 0.0421923 ++++++++++++to 0.0421923
Heightened Def Con from 0.0421923 to 0.0421923
Heightened Def Con from 0.0421923 to 0.0421923
Heightened Def Con from 0.0421923 ++++++++++++to 0.0421923
Heightened Def Con from 0.0421923 +++to 0.0421923
Heightened Def Con from 0.0421923 ++to 0.0421923
Heightened Def Con from 0.0421923 to 0.0421923
Heightened Def Con from 0.0421923 to 0.0421923
Heightened Def Con from 0.0421923 to 0.0421923
Heightened Def Con from 0.0421923 to 0.0421923
Heightened Def Con from 0.0421923 to 0.0421923
Heightened Def Con from 0.0421923 to 0.0421923
Heightened Def Con from 0.0421923 to 0.0421923
Heightened Def Con from 0.0421923 to 0.0421923
Heightened Def Con from 0.0421923 to 0.0421923
Heightened Def Con from 0.0421923 to 0.0421923
Heightened Def Con from 0.0421923 to 0.0421923
Heightened Def Con from 0.0421923 to 0.0421923
Heightened Def Con from 0.0421923 ++++++++++++to 0.0421923
Heightened Def Con from 0.0421923 ++to 0.0421923
Heightened Def Con from 0.0421923 ++to 0.0421923
Heightened Def Con from 0.0421923 to 0.0421923
Heightened Def Con from 0.0421923 to 0.0421923
Heightened Def Con from 0.0421923 to 0.0421923
Heightened Def Con from 0.0421923 to 0.0421923
Heightened Def Con from 0.0421923 to 0.0421923
Heightened Def Con from 0.0421923 to 0.0421923
Heightened Def Con from 0.0421923 ++to 0.0421923
Heightened Def Con from 0.0421923 to 0.0421923
Heightened Def Con from 0.0421923 to 0.0421923
Heightened Def Con from 0.0421923 to 0.0421923
Heightened Def Con from 0.0421923 to 0.0421923
Heightened Def Con from 0.0421923 to 0.0421923
Heightened Def Con from 0.0421923 +++to 0.0421923
Heightened Def Con from 0.0421923 ++to 0.0421923
Heightened Def Con from 0.0421923 to 0.0421923
Heightened Def Con from 0.0421923 +++to 0.0421923
Heightened Def Con from 0.0421923 to 0.0421923
Heightened Def Con from 0.0421923 ++++to 0.0421923
Heightened Def Con from 0.0421923 +++to 0.0421923
Heightened Def Con from 0.0421923 +++to 0.0421923
Heightened Def Con from 0.0421923 ++to 0.0421923
Heightened Def Con from 0.0421923 ++to 0.0421923
Heightened Def Con from 0.0421923 +++to 0.0421923
Heightened Def Con from 0.0421923 ++to 0.0421923
Heightened Def Con from 0.0421923 to 0.0421923
Heightened Def Con from 0.0421923 to 0.0421923
Heightened Def Con from 0.0421923 to 0.0421923
Heightened Def Con from 0.0421923 to 0.0421923
Heightened Def Con from 0.0421923 ++++to 0.0421923
Heightened Def Con from 0.0421923 +to 0.0421923
Heightened Def Con from 0.0421923 +++to 0.0421923
Heightened Def Con from 0.0421923 +++to 0.0421923
Heightened Def Con from 0.0421923 ++to 0.0421923
Heightened Def Con from 0.0421923 +++to 0.0421923
Heightened Def Con from 0.0421923 +++to 0.0421923
Heightened Def Con from 0.0421923 +++to 0.0421923
[...]
Heightened Def Con from 0.0421965 to 0.0421965
Heightened Def Con from 0.0421965 to 0.0421965
Heightened Def Con from 0.0421965 to 0.0421965
Heightened Def Con from 0.0421965 to 0.0421965
Heightened Def Con from 0.0421965 to 0.0421965
Heightened Def Con from 0.0421965 to 0.0421965
Heightened Def Con from 0.0421965 to 0.0421965
Heightened Def Con from 0.0421965 to 0.0421965
Heightened Def Con from 0.0421965 to 0.0421965
Heightened Def Con from 0.0421965 to 0.0421965
Heightened Def Con from 0.0421965 to 0.0421965
Heightened Def Con from 0.0421965 to 0.0421965
Heightened Def Con from 0.0421965 to 0.0421965
Heightened Def Con from 0.0421965 to 0.0421965
Heightened Def Con from 0.0421965 to 0.0421965
Heightened Def Con from 0.0421965 to 0.0421965
Heightened Def Con from 0.0421965 to 0.0421965
Heightened Def Con from 0.0421965 to 0.0421965
Heightened Def Con from 0.0421965 to 0.0421965
Heightened Def Con from 0.0421965 to 0.0421965
Heightened Def Con from 0.0421965 to 0.0421965
Heightened Def Con from 0.0421965 to 0.0421965
Heightened Def Con from 0.0421965 to 0.0421965
Heightened Def Con from 0.0421965 to 0.0421965
Heightened Def Con from 0.0421965 to 0.0421965
Heightened Def Con from 0.0421965 to 0.0421965
Heightened Def Con from 0.0421965 to 0.0421965
Heightened Def Con from 0.0421965 to 0.0421965
Heightened Def Con from 0.0421965 to 0.0421965
Heightened Def Con from 0.0421965 to 0.0421965
Heightened Def Con from 0.0421965 to 0.0421965
Heightened Def Con from 0.0421965 to 0.0421965
Heightened Def Con from 0.0421965 to 0.0421965
Heightened Def Con from 0.0421965 to 0.0421965
Heightened Def Con from 0.0421965 to 0.0421965
Heightened Def Con from 0.0421965 to 0.0421965
Heightened Def Con from 0.0421965 to 0.0421965
Heightened Def Con from 0.0421965 to 0.0421965
Heightened Def Con from 0.0421965 to 0.0421965
Heightened Def Con from 0.0421965 to 0.0421965
Heightened Def Con from 0.0421965 to 0.0421965
Heightened Def Con from 0.0421965 to 0.0421965
Heightened Def Con from 0.0421965 to 0.0421965
Heightened Def Con from 0.0421965 to 0.0421965
Heightened Def Con from 0.0421965 to 0.0421965
Heightened Def Con from 0.0421965 to 0.0421965
Heightened Def Con from 0.0421965 to 0.0421965
Heightened Def Con from 0.0421965 to 0.0421965
Heightened Def Con from 0.0421965 to 0.0421965
Heightened Def Con from 0.0421965 to 0.0421965
Heightened Def Con from 0.0421965 to 0.0421965
Heightened Def Con from 0.0421965 to 0.0421965
Heightened Def Con from 0.0421965 to 0.0421965
Heightened Def Con from 0.0421965 to 0.0421965
Heightened Def Con from 0.0421965 to 0.0421965
Heightened Def Con from 0.0421965 to 0.0421965
Heightened Def Con from 0.0421965 to 0.0421965
Heightened Def Con from 0.0421965 to 0.0421965
Heightened Def Con from 0.0421965 to 0.0421965
Heightened Def Con from 0.0421965 to 0.0421965
Heightened Def Con from 0.0421965 to 0.0421965
Heightened Def Con from 0.0421965 to 0.0421965
Heightened Def Con from 0.0421965 to 0.0421965
Heightened Def Con from 0.0421965 to 0.0421965
Heightened Def Con from 0.0421965 to 0.0421965
Heightened Def Con from 0.0421965 to 0.0421965
Heightened Def Con from 0.0421965 to 0.0421965
Heightened Def Con from 0.0421965 to 0.0421965
Heightened Def Con from 0.0421965 to 0.0421965
Heightened Def Con from 0.0421965 to 0.0421965
Heightened Def Con from 0.0421965 to 0.0421965
Heightened Def Con from 0.0421965 to 0.0421965
Heightened Def Con from 0.0421965 to 0.0421965
Heightened Def Con from 0.0421965 to 0.0421965
Heightened Def Con from 0.0421965 to 0.0421965
Heightened Def Con from 0.0421965 to 0.0421965
Heightened Def Con from 0.0421965 to 0.0421965
Heightened Def Con from 0.0421965 to 0.0421965
Heightened Def Con from 0.0421965 to 0.0421965
Heightened Def Con from 0.0421965 to 0.0421965
Heightened Def Con from 0.0421965 to 0.0421965
Heightened Def Con from 0.0421965 to 0.0421965
Heightened Def Con from 0.0421965 to 0.0421965
Heightened Def Con from 0.0421965 to 0.0421965
Heightened Def Con from 0.0421965 to 0.0421965
Heightened Def Con from 0.0421965 to 0.0421965
Heightened Def Con from 0.0421965 to 0.0421965
Heightened Def Con from 0.0421965 to 0.0421965
Heightened Def Con from 0.0421965 to 0.0421965
Heightened Def Con from 0.0421965 to 0.0421965
Heightened Def Con from 0.0421965 to 0.0421965
Heightened Def Con from 0.0421965 to 0.0421965
Heightened Def Con from 0.0421965 to 0.0421965
Heightened Def Con from 0.0421965 to 0.0421965
Heightened Def Con from 0.0421965 to 0.0421965
Heightened Def Con from 0.0421965 to 0.0421965
Heightened Def Con from 0.0421965 to 0.0421965
Heightened Def Con from 0.0421965 to 0.0421965
Heightened Def Con from 0.0421965 to 0.0421965
Heightened Def Con from 0.0421965 to 0.0421965
Heightened Def Con from 0.0421965 to 0.0421965
Heightened Def Con from 0.0421965 to 0.0421965
Heightened Def Con from 0.0421965 to 0.0421965
Heightened Def Con from 0.0421965 to 0.0421965
Heightened Def Con from 0.0421965 to 0.0421965
Heightened Def Con from 0.0421965 to 0.0421965
Heightened Def Con from 0.0421965 to 0.0421965
Heightened Def Con from 0.0421965 to 0.0421965
Heightened Def Con from 0.0421965 to 0.0421965
Heightened Def Con from 0.0421965 to 0.0421965
Heightened Def Con from 0.0421965 to 0.0421965
Heightened Def Con from 0.0421965 to 0.0421965
Heightened Def Con from 0.0421965 to 0.0421965
Heightened Def Con from 0.0421965 to 0.0421965
Heightened Def Con from 0.0421965 to 0.0421965
Heightened Def Con from 0.0421965 to 0.0421965
Heightened Def Con from 0.0421965 to 0.0421965
Heightened Def Con from 0.0421965 to 0.0421965
Heightened Def Con from 0.0421965 to 0.0421965
Heightened Def Con from 0.0421965 to 0.0421965
Heightened Def Con from 0.0421965 to 0.0421965
Heightened Def Con from 0.0421965 to 0.0421965
Heightened Def Con from 0.0421965 to 0.0421965
Heightened Def Con from 0.0421965 to 0.0421965
Heightened Def Con from 0.0421965 to 0.0421965
Heightened Def Con from 0.0421965 to 0.0421965
Heightened Def Con from 0.0421965 to 0.0421965
Heightened Def Con from 0.0421965 to 0.0421965
Heightened Def Con from 0.0421965 to 0.0421965
Heightened Def Con from 0.0421965 to 0.0421965
Heightened Def Con from 0.0421965 to 0.0421965
Heightened Def Con from 0.0421965 to 0.0421965
Heightened Def Con from 0.0421965 to 0.0421965
Heightened Def Con from 0.0421965 to 0.0421965
Heightened Def Con from 0.0421965 to 0.0421965
Heightened Def Con from 0.0421965 to 0.0421965
Heightened Def Con from 0.0421965 to 0.0421965
Heightened Def Con from 0.0421965 to 0.0421965
Heightened Def Con from 0.0421965 to 0.0421965
Heightened Def Con from 0.0421965 to 0.0421965
Heightened Def Con from 0.0421965 to 0.0421965
Heightened Def Con from 0.0421965 to 0.0421965
Heightened Def Con from 0.0421965 to 0.0421965
Heightened Def Con from 0.0421965 to 0.0421965
Heightened Def Con from 0.0421965 to 0.0421965
Heightened Def Con from 0.0421965 to 0.0421965
Heightened Def Con from 0.0421965 to 0.0421965
Heightened Def Con from 0.0421965 to 0.0421965
Heightened Def Con from 0.0421965 to 0.0421965
Heightened Def Con from 0.0421965 to 0.0421965
Heightened Def Con from 0.0421965 to 0.0421965
Heightened Def Con from 0.0421965 to 0.0421965
Heightened Def Con from 0.0421965 to 0.0421965
Heightened Def Con from 0.0421965 to 0.0421965
Heightened Def Con from 0.0421965 to 0.0421965
Heightened Def Con from 0.0421965 to 0.0421965
Heightened Def Con from 0.0421965 to 0.0421965
Heightened Def Con from 0.0421965 to 0.0421965
Heightened Def Con from 0.0421965 to 0.0421965
Heightened Def Con from 0.0421965 to 0.0421965
Heightened Def Con from 0.0421965 to 0.0421965
Heightened Def Con from 0.0421965 to 0.0421965
Heightened Def Con from 0.0421965 to 0.0421965
Heightened Def Con from 0.0421965 to 0.0421965
Heightened Def Con from 0.0421965 to 0.0421965
Heightened Def Con from 0.0421965 to 0.0421965
Heightened Def Con from 0.0421965 to 0.0421965
Heightened Def Con from 0.0421965 to 0.0421965
Heightened Def Con from 0.0421965 to 0.0421965
Heightened Def Con from 0.0421965 to 0.0421965
Heightened Def Con from 0.0421965 to 0.0421965
Heightened Def Con from 0.0421965 to 0.0421965
Heightened Def Con from 0.0421965 to 0.0421965
Heightened Def Con from 0.0421965 to 0.0421965
Heightened Def Con from 0.0421965 to 0.0421965
Heightened Def Con from 0.0421965 to 0.0421965
Heightened Def Con from 0.0421965 to 0.0421965
Heightened Def Con from 0.0421965 to 0.0421965
Heightened Def Con from 0.0421965 to 0.0421965
Heightened Def Con from 0.0421965 to 0.0421965
Heightened Def Con from 0.0421965 to 0.0421965
Heightened Def Con from 0.0421965 to 0.0421965
Heightened Def Con from 0.0421965 to 0.0421965
Heightened Def Con from 0.0421965 to 0.0421965
Heightened Def Con from 0.0421965 to 0.0421965
Heightened Def Con from 0.0421965 to 0.0421965
Heightened Def Con from 0.0421965 to 0.0421965
Heightened Def Con from 0.0421965 to 0.0421965
Heightened Def Con from 0.0421965 to 0.0421965
Heightened Def Con from 0.0421965 to 0.0421965
Heightened Def Con from 0.0421965 to 0.0421965
Heightened Def Con from 0.0421965 to 0.0421965
Heightened Def Con from 0.0421965 to 0.0421965
Heightened Def Con from 0.0421965 to 0.0421965
Heightened Def Con from 0.0421965 to 0.0421965
Heightened Def Con from 0.0421965 to 0.0421965
Heightened Def Con from 0.0421965 to 0.0421965
Heightened Def Con from 0.0421965 to 0.0421965
Heightened Def Con from 0.0421965 to 0.0421965
Heightened Def Con from 0.0421965 to 0.0421965
Heightened Def Con from 0.0421965 to 0.0421965
Heightened Def Con from 0.0421965 to 0.0421965
Heightened Def Con from 0.0421965 to 0.0421965
Heightened Def Con from 0.0421965 to 0.0421965
Heightened Def Con from 0.0421965 to 0.0421965
Heightened Def Con from 0.0421965 to 0.0421965
Heightened Def Con from 0.0421965 to 0.0421965
Heightened Def Con from 0.0421965 to 0.0421965
Heightened Def Con from 0.0421965 to 0.0421965
Heightened Def Con from 0.0421965 to 0.0421965
Heightened Def Con from 0.0421965 to 0.0421965
Heightened Def Con from 0.0421965 to 0.0421965
Heightened Def Con from 0.0421965 to 0.0421965
Heightened Def Con from 0.0421965 to 0.0421965
Heightened Def Con from 0.0421965 to 0.0421965
Heightened Def Con from 0.0421965 to 0.0421965
Heightened Def Con from 0.0421965 to 0.0421965
Heightened Def Con from 0.0421965 to 0.0421965
Heightened Def Con from 0.0421965 to 0.0421965
Heightened Def Con from 0.0421965 to 0.0421965
Heightened Def Con from 0.0421965 to 0.0421965
Heightened Def Con from 0.0421965 to 0.0421965
Heightened Def Con from 0.0421965 to 0.0421965
Heightened Def Con from 0.0421965 to 0.0421965
Heightened Def Con from 0.0421965 to 0.0421965
Heightened Def Con from 0.0421965 to 0.0421965
Heightened Def Con from 0.0421965 to 0.0421965
Heightened Def Con from 0.0421965 to 0.0421965
Heightened Def Con from 0.0421965 to 0.0421965
Heightened Def Con from 0.0421965 to 0.0421965
Heightened Def Con from 0.0421965 to 0.0421965
Heightened Def Con from 0.0421965 to 0.0421965
Heightened Def Con from 0.0421965 to 0.0421965
Heightened Def Con from 0.0421965 to 0.0421965
Heightened Def Con from 0.0421965 to 0.0421965
Heightened Def Con from 0.0421965 to 0.0421965
Heightened Def Con from 0.0421965 to 0.0421965
Heightened Def Con from 0.0421965 to 0.0421965
Heightened Def Con from 0.0421965 to 0.0421965
Heightened Def Con from 0.0421965 to 0.0421965
Heightened Def Con from 0.0421965 to 0.0421965
Heightened Def Con from 0.0421965 to 0.0421965
Heightened Def Con from 0.0421965 to 0.0421965
Heightened Def Con from 0.0421965 to 0.0421965
Heightened Def Con from 0.0421965 to 0.0421965
Heightened Def Con from 0.0421965 to 0.0421965
Heightened Def Con from 0.0421965 to 0.0421965
Heightened Def Con from 0.0421965 to 0.0421965
Heightened Def Con from 0.0421965 to 0.0421965
Heightened Def Con from 0.0421965 to 0.0421965
Heightened Def Con from 0.0421965 to 0.0421965
Heightened Def Con from 0.0421965 to 0.0421965
Heightened Def Con from 0.0421965 to 0.0421965
Heightened Def Con from 0.0421965 to 0.0421965
Heightened Def Con from 0.0421965 to 0.0421965
Heightened Def Con from 0.0421965 to 0.0421965
Heightened Def Con from 0.0421965 to 0.0421965
Heightened Def Con from 0.0421965 to 0.0421965
Heightened Def Con from 0.0421965 to 0.0421965
Heightened Def Con from 0.0421965 to 0.0421965
Heightened Def Con from 0.0421965 to 0.0421965
Heightened Def Con from 0.0421965 to 0.0421965
Heightened Def Con from 0.0421965 to 0.0421965
Heightened Def Con from 0.0421965 to 0.0421965
Heightened Def Con from 0.0421965 to 0.0421965
Heightened Def Con from 0.0421965 to 0.0421965
Heightened Def Con from 0.0421965 to 0.0421965
Heightened Def Con from 0.0421965 to 0.0421965
Heightened Def Con from 0.0421965 to 0.0421965
Heightened Def Con from 0.0421965 to 0.0421965
Heightened Def Con from 0.0421965 to 0.0421965
Heightened Def Con from 0.0421965 to 0.0421965
Heightened Def Con from 0.0421965 to 0.0421965
Heightened Def Con from 0.0421965 to 0.0421965
Heightened Def Con from 0.0421965 to 0.0421965
Heightened Def Con from 0.0421965 to 0.0421965
Heightened Def Con from 0.0421965 to 0.0421965
Heightened Def Con from 0.0421965 to 0.0421965
Heightened Def Con from 0.0421965 to 0.0421965
Heightened Def Con from 0.0421965 to 0.0421965
Heightened Def Con from 0.0421965 to 0.0421965
Heightened Def Con from 0.0421965 to 0.0421965
Heightened Def Con from 0.0421965 to 0.0421965
Heightened Def Con from 0.0421965 to 0.0421965
Heightened Def Con from 0.0421965 to 0.0421965
Heightened Def Con from 0.0421965 to 0.0421965
Heightened Def Con from 0.0421965 to 0.0421965
Heightened Def Con from 0.0421965 to 0.0421965
Heightened Def Con from 0.0421965 to 0.0421965
Heightened Def Con from 0.0421965 to 0.0421965
Heightened Def Con from 0.0421965 to 0.0421965
Heightened Def Con from 0.0421965 to 0.0421965
Heightened Def Con from 0.0421965 to 0.0421965
Heightened Def Con from 0.0421965 to 0.0421965
Heightened Def Con from 0.0421965 to 0.0421965
Heightened Def Con from 0.0421965 to 0.0421965
Heightened Def Con from 0.0421965 to 0.0421965
Heightened Def Con from 0.0421965 to 0.0421965
Heightened Def Con from 0.0421965 to 0.0421965
Heightened Def Con from 0.0421965 to 0.0421965
Heightened Def Con from 0.0421965 to 0.0421965
Heightened Def Con from 0.0421965 to 0.0421965
Heightened Def Con from 0.0421965 to 0.0421965
Heightened Def Con from 0.0421965 to 0.0421965
Heightened Def Con from 0.0421965 to 0.0421965
Heightened Def Con from 0.0421965 to 0.0421965
Heightened Def Con from 0.0421965 to 0.0421965
Heightened Def Con from 0.0421965 to 0.0421965
Heightened Def Con from 0.0421965 to 0.0421965
Heightened Def Con from 0.0421965 to 0.0421965
Heightened Def Con from 0.0421965 to 0.0421965
Heightened Def Con from 0.0421965 to 0.0421965
Heightened Def Con from 0.0421965 to 0.0421965
Heightened Def Con from 0.0421965 to 0.0421965
Heightened Def Con from 0.0421965 to 0.0421965
Heightened Def Con from 0.0421965 to 0.0421965
Heightened Def Con from 0.0421965 to 0.0421965
Heightened Def Con from 0.0421965 to 0.0421965
Heightened Def Con from 0.0421965 to 0.0421965
Heightened Def Con from 0.0421965 to 0.0421965
Heightened Def Con from 0.0421965 to 0.0421965
Heightened Def Con from 0.0421965 to 0.0421965
Heightened Def Con from 0.0421965 to 0.0421965
Heightened Def Con from 0.0421965 to 0.0421965
Heightened Def Con from 0.0421965 to 0.0421965
Heightened Def Con from 0.0421965 to 0.0421965
Heightened Def Con from 0.0421965 to 0.0421965
Heightened Def Con from 0.0421965 to 0.0421965
Heightened Def Con from 0.0421965 to 0.0421965
Heightened Def Con from 0.0421965 to 0.0421965
Heightened Def Con from 0.0421965 to 0.0421965
Heightened Def Con from 0.0421965 to 0.0421965
Heightened Def Con from 0.0421965 to 0.0421965
Heightened Def Con from 0.0421965 to 0.0421965
Heightened Def Con from 0.0421965 to 0.0421965
Heightened Def Con from 0.0421965 to 0.0421965
Heightened Def Con from 0.0421965 to 0.0421965
Heightened Def Con from 0.0421965 to 0.0421965
Heightened Def Con from 0.0421965 to 0.0421965
Heightened Def Con from 0.0421965 to 0.0421965
Heightened Def Con from 0.0421965 to 0.0421965
Heightened Def Con from 0.0421965 to 0.0421965
Heightened Def Con from 0.0421965 to 0.0421965
Heightened Def Con from 0.0421965 to 0.0421965
Heightened Def Con from 0.0421965 to 0.0421965
Heightened Def Con from 0.0421965 to 0.0421965
Heightened Def Con from 0.0421965 to 0.0421965
Heightened Def Con from 0.0421965 to 0.0421965
Heightened Def Con from 0.0421965 to 0.0421965
Heightened Def Con from 0.0421965 to 0.0421965
Heightened Def Con from 0.0421965 to 0.0421965
Heightened Def Con from 0.0421965 to 0.0421965
Heightened Def Con from 0.0421965 to 0.0421965
Heightened Def Con from 0.0421965 to 0.0421965
Heightened Def Con from 0.0421965 to 0.0421965
Heightened Def Con from 0.0421965 to 0.0421965
Heightened Def Con from 0.0421965 to 0.0421965
Heightened Def Con from 0.0421965 to 0.0421965
Heightened Def Con from 0.0421965 to 0.0421965
Heightened Def Con from 0.0421965 to 0.0421965
Heightened Def Con from 0.0421965 to 0.0421965
Heightened Def Con from 0.0421965 to 0.0421965
Heightened Def Con from 0.0421965 to 0.0421965
Heightened Def Con from 0.0421965 to 0.0421965
Heightened Def Con from 0.0421965 to 0.0421965
Heightened Def Con from 0.0421965 to 0.0421965
Heightened Def Con from 0.0421965 to 0.0421965
Heightened Def Con from 0.0421965 to 0.0421965
Heightened Def Con from 0.0421965 to 0.0421965
Heightened Def Con from 0.0421965 to 0.0421965
Heightened Def Con from 0.0421965 to 0.0421965
Heightened Def Con from 0.0421965 to 0.0421965
Heightened Def Con from 0.0421965 to 0.0421965
Heightened Def Con from 0.0421965 to 0.0421965
Heightened Def Con from 0.0421965 to 0.0421965
Heightened Def Con from 0.0421965 to 0.0421965
Heightened Def Con from 0.0421965 to 0.0421965
Heightened Def Con from 0.0421965 to 0.0421965
Heightened Def Con from 0.0421965 to 0.0421965
Heightened Def Con from 0.0421965 to 0.0421965
Heightened Def Con from 0.0421965 to 0.0421965
Heightened Def Con from 0.0421965 to 0.0421965
Heightened Def Con from 0.0421965 to 0.0421965
Heightened Def Con from 0.0421965 to 0.0421965
Heightened Def Con from 0.0421965 to 0.0421965
Heightened Def Con from 0.0421965 to 0.0421965
Heightened Def Con from 0.0421965 to 0.0421965
Heightened Def Con from 0.0421965 to 0.0421965
Heightened Def Con from 0.0421965 to 0.0421965
Heightened Def Con from 0.0421965 to 0.0421965
Heightened Def Con from 0.0421965 to 0.0421965
Heightened Def Con from 0.0421965 to 0.0421965
Heightened Def Con from 0.0421965 to 0.0421965
Heightened Def Con from 0.0421965 to 0.0421965
Heightened Def Con from 0.0421965 to 0.0421965
Heightened Def Con from 0.0421965 to 0.0421965
Heightened Def Con from 0.0421965 to 0.0421965
Heightened Def Con from 0.0421965 to 0.0421965
Heightened Def Con from 0.0421965 to 0.0421965
Heightened Def Con from 0.0421965 to 0.0421965
Heightened Def Con from 0.0421965 to 0.0421965
Heightened Def Con from 0.0421965 to 0.0421965
Heightened Def Con from 0.0421965 to 0.0421965
Heightened Def Con from 0.0421965 to 0.0421965
Heightened Def Con from 0.0421965 to 0.0421965
Heightened Def Con from 0.0421965 to 0.0421965
Heightened Def Con from 0.0421965 to 0.0421965
Heightened Def Con from 0.0421965 to 0.0421965
Heightened Def Con from 0.0421965 to 0.0421965
Heightened Def Con from 0.0421965 to 0.0421965
Heightened Def Con from 0.0421965 to 0.0421965
Heightened Def Con from 0.0421965 to 0.0421965
Heightened Def Con from 0.0421965 to 0.0421965
Heightened Def Con from 0.0421965 to 0.0421965
Heightened Def Con from 0.0421965 to 0.0421965
Heightened Def Con from 0.0421965 to 0.0421965
Heightened Def Con from 0.0421965 +++to 0.0421965

Date: Wed Mar 14 19:35:29 2018
Total elapsed time: 198.282 seconds.

tnom = 27
temp = 27
method = modified trap
totiter = 48883687
traniter = 48883687
tranpoints = 9617652
accept = 6670634
rejected = 2977446
matrix size = 4
fillins = 0
solver = Normal
Matrix Compiler1: 118 bytes object code size  0.1/0.1/[0.0]
Matrix Compiler2: 282 bytes object code size  0.1/0.1/[0.1]


