Circuit: * C:\Users\Сергей\Desktop\короткий\2лаба кор\Draft4.asc

.OP point found by inspection.

Date: Wed Mar 14 19:45:26 2018
Total elapsed time: 0.057 seconds.

tnom = 27
temp = 27
method = modified trap
totiter = 2082
traniter = 2082
tranpoints = 1042
accept = 1042
rejected = 0
matrix size = 3
fillins = 0
solver = Normal
Matrix Compiler1:       3 opcodes  0.1/[0.0]/0.1
Matrix Compiler2: 175 bytes object code size  0.0/0.1/[0.0]


