Circuit: * C:\Users\Сергей\Desktop\короткий\2лаба кор\Draft3.asc

.OP point found by inspection.

Date: Wed Mar 14 19:38:21 2018
Total elapsed time: 0.097 seconds.

tnom = 27
temp = 27
method = modified trap
totiter = 13265
traniter = 13265
tranpoints = 3933
accept = 2474
rejected = 1459
matrix size = 4
fillins = 0
solver = Normal
Matrix Compiler1: 136 bytes object code size  0.1/0.1/[0.0]
Matrix Compiler2: 236 bytes object code size  0.2/0.2/[0.0]


